*SOIL-PLANT-ATMOSPHERE MODULE OUTPUT FILE

*DSSAT Cropping System Model Ver. 4.7.5.008 -release  JAN 07, 2021 20:33:24

*RUN   1        : ERiMA DCC1                MZCER047 ETMZmelk    1
 MODEL          : MZCER047 - Maize
 EXPERIMENT     : ETMZmelk SN MELKSSAL
 DATA PATH      : C:\IRI\Python_Dash\ET_DSS_hist\TEST\
 TREATMENT  1   : ERiMA DCC1                MZCER047
  
!                                                                                                                                                                                        Soil evaporation (mm/d) by soil depth (cm):
!                                                                                                                                                                                        0-5    5-15   15-20   20-35   35-50   50-65   65-81   81-97  97-118 118-200
@YEAR DOY   DAS   SRAA  TMAXA  TMINA    REFA    EOAA    EOPA    EOSA    KCAA    KCBA    KEAA    ETAA    EPAA    ESAA    EFAA    EMAA    EOAC    ETAC    EPAC    ESAC    EFAC    EMAC    ES1D    ES2D    ES3D    ES4D    ES5D    ES6D    ES7D    ES8D    ES9D   ES10D   TRWUD
 1981 165     1  21.00  29.40  14.70 -99.000   5.502   0.000   5.502 -99.000 -99.000 -99.000   1.007   0.000   1.007   0.000   0.000    5.50    1.01    0.00    1.01    0.00    0.00   0.824   0.105   0.017   0.022   0.015   0.008   0.005   0.003   0.003   0.006   0.000
 1981 166     2  19.00  28.70  15.50 -99.000   4.948   0.000   4.948 -99.000 -99.000 -99.000   0.932   0.000   0.932   0.000   0.000   10.45    1.94    0.00    1.94    0.00    0.00   0.749   0.104   0.017   0.022   0.015   0.008   0.005   0.003   0.003   0.006   0.000
 1981 167     3  21.90  31.20  14.90 -99.000   5.819   0.000   5.819 -99.000 -99.000 -99.000   0.863   0.000   0.863   0.000   0.000   16.27    2.80    0.00    2.80    0.00    0.00   0.681   0.104   0.017   0.021   0.015   0.008   0.005   0.003   0.003   0.006   0.000
 1981 168     4  20.10  28.90  16.60 -99.000   5.253   0.000   5.253 -99.000 -99.000 -99.000   0.800   0.000   0.800   0.000   0.000   21.52    3.60    0.00    3.60    0.00    0.00   0.619   0.103   0.017   0.021   0.015   0.008   0.005   0.003   0.003   0.006   0.000
 1981 169     5  22.60  32.30  14.90 -99.000   6.040   0.000   6.040 -99.000 -99.000 -99.000   0.743   0.000   0.743   0.000   0.000   27.56    4.35    0.00    4.35    0.00    0.00   0.563   0.102   0.017   0.021   0.015   0.008   0.005   0.003   0.003   0.006   0.000
 1981 170     6  20.20  28.90  16.30 -99.000   5.237   0.000   5.237 -99.000 -99.000 -99.000   0.691   0.000   0.691   0.000   0.000   32.80    5.04    0.00    5.04    0.00    0.00   0.512   0.102   0.017   0.021   0.015   0.008   0.005   0.003   0.003   0.006   0.000
 1981 171     7  19.10  28.00  16.10 -99.000   4.881   0.000   4.881 -99.000 -99.000 -99.000   0.644   0.000   0.644   0.000   0.000   37.68    5.68    0.00    5.68    0.00    0.00   0.465   0.101   0.017   0.021   0.015   0.008   0.005   0.003   0.003   0.006   0.000
 1981 172     8  19.10  27.50  15.90 -99.000   4.833   0.012   4.821 -99.000 -99.000 -99.000   0.613   0.012   0.601   0.000   0.000   42.51    6.29    0.01    6.28    0.00    0.00   0.423   0.101   0.017   0.021   0.015   0.008   0.005   0.003   0.003   0.006   0.001
 1981 173     9  20.30  30.00  15.40 -99.000   5.252   0.025   5.228 -99.000 -99.000 -99.000   0.587   0.025   0.562   0.000   0.000   47.76    6.88    0.04    6.84    0.00    0.00   0.384   0.100   0.017   0.021   0.015   0.008   0.005   0.003   0.003   0.006   0.002
 1981 174    10  21.90  31.00  14.80 -99.000   5.691   0.042   5.649 -99.000 -99.000 -99.000   0.569   0.042   0.526   0.000   0.000   53.46    7.45    0.08    7.37    0.00    0.00   0.349   0.099   0.017   0.021   0.015   0.008   0.005   0.003   0.003   0.006   0.004
 1981 175    11  19.70  28.00  16.80 -99.000   5.013   0.054   4.959 -99.000 -99.000 -99.000   0.793   0.054   0.739   0.000   0.000   58.47    8.24    0.13    8.11    0.00    0.00   0.563   0.098   0.017   0.021   0.015   0.008   0.005   0.003   0.003   0.006   0.005
 1981 176    12  21.20  30.20  14.50 -99.000   5.559   0.114   5.444 -99.000 -99.000 -99.000   1.191   0.114   1.077   0.000   0.000   64.03    9.43    0.25    9.19    0.00    0.00   0.899   0.101   0.017   0.021   0.015   0.008   0.005   0.003   0.003   0.006   0.011
 1981 177    13  20.40  29.10  15.10 -99.000   5.351   0.172   5.179 -99.000 -99.000 -99.000   1.307   0.172   1.135   0.000   0.000   69.38   10.74    0.42   10.32    0.00    0.00   0.954   0.103   0.017   0.021   0.015   0.008   0.005   0.003   0.003   0.006   0.017
 1981 178    14  17.30  25.40  16.60 -99.000   4.367   0.197   4.169 -99.000 -99.000 -99.000   1.235   0.197   1.038   0.000   0.000   73.75   11.98    0.61   11.36    0.00    0.00   0.859   0.102   0.017   0.021   0.015   0.008   0.005   0.003   0.003   0.006   0.020
 1981 179    15  18.40  28.50  16.60 -99.000   4.781   0.287   4.493 -99.000 -99.000 -99.000   1.235   0.287   0.949   0.000   0.000   78.53   13.21    0.90   12.31    0.00    0.00   0.770   0.101   0.017   0.021   0.015   0.008   0.005   0.003   0.003   0.006   0.029
 1981 180    16  20.50  30.10  15.60 -99.000   5.348   0.410   4.935 -99.000 -99.000 -99.000   1.359   0.347   1.012   0.000   0.000   83.88   14.57    1.25   13.32    0.00    0.00   0.834   0.100   0.017   0.021   0.015   0.008   0.005   0.003   0.003   0.006   0.035
 1981 181    17  19.90  29.00  15.60 -99.000   5.170   0.457   4.711 -99.000 -99.000 -99.000   1.530   0.457   1.073   0.000   0.000   89.05   16.10    1.71   14.39    0.00    0.00   0.897   0.099   0.016   0.021   0.015   0.008   0.005   0.003   0.003   0.006   0.046
 1981 182    18  13.30  24.80  16.10 -99.000   3.274   0.363   2.909 -99.000 -99.000 -99.000   1.328   0.363   0.965   0.000   0.000   92.32   17.43    2.07   15.36    0.00    0.00   0.790   0.098   0.016   0.021   0.015   0.008   0.005   0.003   0.003   0.006   0.036
 1981 183    19  16.80  25.80  15.30 -99.000   4.130   0.532   3.595 -99.000 -99.000 -99.000   1.318   0.441   0.877   0.000   0.000   96.45   18.75    2.51   16.23    0.00    0.00   0.703   0.096   0.016   0.021   0.014   0.008   0.005   0.003   0.003   0.006   0.044
 1981 184    20  22.10  28.20  15.50 -99.000   5.568   0.777   4.787 -99.000 -99.000 -99.000   1.422   0.424   0.998   0.000   0.000  102.02   20.17    2.93   17.23    0.00    0.00   0.825   0.097   0.016   0.021   0.014   0.008   0.005   0.003   0.003   0.006   0.042
 1981 185    21  21.10  27.30  15.40 -99.000   5.327   0.780   4.542 -99.000 -99.000 -99.000   5.322   0.780   4.542   0.000   0.000  107.34   25.49    3.71   21.77    0.00    0.00   0.875   0.522   0.165   0.394   0.445   0.361   0.308   0.268   0.302   0.901   0.078
 1981 186    22  19.60  26.60  15.90 -99.000   4.915   0.859   4.051 -99.000 -99.000 -99.000   4.910   0.859   4.051   0.000   0.000  112.26   30.40    4.57   25.83    0.00    0.00   0.749   0.483   0.145   0.350   0.398   0.324   0.277   0.241   0.272   0.812   0.086
 1981 187    23  21.60  28.30  16.10 -99.000   5.476   1.119   4.352 -99.000 -99.000 -99.000   2.165   1.119   1.046   0.000   0.000  117.73   32.56    5.69   26.87    0.00    0.00   0.872   0.100   0.015   0.020   0.014   0.008   0.005   0.003   0.003   0.006   0.112
 1981 188    24  22.60  29.80  14.50 -99.000   5.696   1.355   4.334 -99.000 -99.000 -99.000   2.245   1.331   0.914   0.000   0.000  123.43   34.81    7.02   27.79    0.00    0.00   0.743   0.097   0.015   0.020   0.014   0.008   0.005   0.003   0.003   0.006   0.133
 1981 189    25  19.70  27.20  16.40 -99.000   4.853   1.268   3.577 -99.000 -99.000 -99.000   1.884   1.070   0.814   0.000   0.000  128.28   36.69    8.09   28.60    0.00    0.00   0.648   0.093   0.015   0.020   0.014   0.008   0.005   0.003   0.003   0.006   0.107
 1981 190    26  15.90  24.10  15.40 -99.000   3.726   1.042   2.678 -99.000 -99.000 -99.000   1.753   1.009   0.744   0.000   0.000  132.01   38.45    9.10   29.34    0.00    0.00   0.582   0.089   0.014   0.020   0.014   0.008   0.005   0.003   0.003   0.006   0.101
 1981 191    27  17.50  24.40  14.40 -99.000   4.062   1.218   2.836 -99.000 -99.000 -99.000   2.103   1.072   1.032   0.000   0.000  136.07   40.55   10.17   30.38    0.00    0.00   0.864   0.096   0.014   0.019   0.014   0.008   0.005   0.003   0.003   0.006   0.107
 1981 192    28  15.20  25.10  15.30 -99.000   3.654   1.159   2.489 -99.000 -99.000 -99.000   3.648   1.159   2.489   0.000   0.000  139.72   44.20   11.33   32.86    0.00    0.00   0.546   0.321   0.095   0.188   0.228   0.186   0.159   0.139   0.157   0.469   0.116
 1981 193    29  15.30  25.20  15.30 -99.000   3.675   1.291   2.376 -99.000 -99.000 -99.000   3.668   1.291   2.376   0.000   0.000  143.40   47.86   12.62   35.24    0.00    0.00   0.509   0.350   0.115   0.206   0.207   0.167   0.141   0.124   0.139   0.417   0.129
 1981 194    30  22.20  27.60  15.70 -99.000   5.469   2.111   3.347 -99.000 -99.000 -99.000   5.457   2.111   3.347   0.000   0.000  148.87   53.32   14.74   38.59    0.00    0.00   0.622   0.468   0.159   0.343   0.307   0.245   0.208   0.181   0.204   0.610   0.211
 1981 195    31  18.60  26.90  14.80 -99.000   4.442   1.893   2.538 -99.000 -99.000 -99.000   4.431   1.893   2.538   0.000   0.000  153.31   57.75   16.63   41.13    0.00    0.00   0.439   0.336   0.115   0.265   0.240   0.193   0.165   0.143   0.161   0.481   0.189
 1981 196    32  18.20  25.90  15.50 -99.000   4.280   1.984   2.285 -99.000 -99.000 -99.000   3.069   1.984   1.086   0.000   0.000  157.59   60.82   18.61   42.21    0.00    0.00   0.884   0.116   0.020   0.026   0.015   0.008   0.005   0.003   0.003   0.006   0.198
 1981 197    33  20.20  26.40  14.00 -99.000   4.680   2.329   2.338 -99.000 -99.000 -99.000   3.287   2.329   0.958   0.000   0.000  162.27   64.11   20.94   43.17    0.00    0.00   0.764   0.110   0.019   0.026   0.015   0.008   0.005   0.003   0.003   0.006   0.233
 1981 198    34  17.80  25.80  15.10 -99.000   4.100   2.172   1.915 -99.000 -99.000 -99.000   3.285   2.172   1.112   0.000   0.000  166.37   67.39   23.11   44.28    0.00    0.00   0.919   0.110   0.018   0.026   0.015   0.008   0.005   0.003   0.003   0.006   0.217
 1981 199    35  19.50  25.90  14.70 -99.000   4.517   2.463   2.039 -99.000 -99.000 -99.000   4.503   2.463   2.039   0.000   0.000  170.89   71.90   25.58   46.32    0.00    0.00   0.425   0.258   0.082   0.200   0.185   0.150   0.128   0.111   0.125   0.374   0.246
 1981 200    36  18.40  25.20  15.60 -99.000   4.261   2.390   1.857 -99.000 -99.000 -99.000   4.247   2.390   1.857   0.000   0.000  175.15   76.14   27.97   48.18    0.00    0.00   0.351   0.241   0.081   0.188   0.172   0.139   0.118   0.103   0.116   0.346   0.239
 1981 201    37  16.70  24.60  16.00 -99.000   3.821   2.195   1.613 -99.000 -99.000 -99.000   3.808   2.195   1.613   0.000   0.000  178.97   79.95   30.16   49.79    0.00    0.00   0.324   0.206   0.070   0.163   0.148   0.119   0.101   0.088   0.099   0.296   0.220
 1981 202    38  19.10  25.80  16.20 -99.000   4.456   2.612   1.830 -99.000 -99.000 -99.000   4.441   2.612   1.830   0.000   0.000  183.43   84.39   32.77   51.62    0.00    0.00   0.347   0.237   0.080   0.187   0.170   0.137   0.117   0.101   0.114   0.339   0.261
 1981 203    39  16.50  24.40  14.90 -99.000   3.718   2.224   1.481 -99.000 -99.000 -99.000   3.705   2.224   1.481   0.000   0.000  187.14   88.10   35.00   53.10    0.00    0.00   0.262   0.186   0.063   0.154   0.141   0.114   0.097   0.085   0.096   0.283   0.222
 1981 204    40  19.70  25.40  14.60 -99.000   4.466   2.717   1.734 -99.000 -99.000 -99.000   4.450   2.717   1.734   0.000   0.000  191.61   92.55   37.71   54.84    0.00    0.00   0.335   0.233   0.079   0.175   0.159   0.128   0.109   0.094   0.106   0.315   0.272
 1981 205    41  21.50  25.80  14.90 -99.000   4.933   3.057   1.858 -99.000 -99.000 -99.000   4.916   3.057   1.858   0.000   0.000  196.54   97.46   40.77   56.69    0.00    0.00   0.387   0.268   0.094   0.185   0.164   0.131   0.111   0.096   0.107   0.316   0.306
 1981 206    42  18.60  24.80  15.20 -99.000   4.217   2.663   1.539 -99.000 -99.000 -99.000   4.202   2.663   1.539   0.000   0.000  200.76  101.67   43.43   58.23    0.00    0.00   0.316   0.220   0.079   0.157   0.138   0.110   0.092   0.079   0.089   0.259   0.266
 1981 207    43  13.70  21.80  15.00 -99.000   2.985   1.913   1.060 -99.000 -99.000 -99.000   2.973   1.913   1.060   0.000   0.000  203.74  104.64   45.35   59.29    0.00    0.00   0.217   0.150   0.054   0.109   0.096   0.076   0.064   0.055   0.061   0.178   0.191
 1981 208    44  19.70  24.40  14.40 -99.000   4.406   2.856   1.534 -99.000 -99.000 -99.000   4.389   2.856   1.534   0.000   0.000  208.15  109.03   48.20   60.83    0.00    0.00   0.315   0.209   0.078   0.157   0.139   0.112   0.094   0.081   0.089   0.260   0.286
 1981 209    45  19.20  24.60  15.10 -99.000   4.319   2.842   1.461 -99.000 -99.000 -99.000   4.303   2.842   1.461   0.000   0.000  212.47  113.33   51.05   62.29    0.00    0.00   0.299   0.191   0.073   0.148   0.133   0.108   0.091   0.079   0.087   0.253   0.284
 1981 210    46  13.90  23.70  15.30 -99.000   3.092   2.063   1.016 -99.000 -99.000 -99.000   3.080   2.063   1.016   0.000   0.000  215.56  116.41   53.11   63.30    0.00    0.00   0.207   0.135   0.051   0.102   0.092   0.074   0.063   0.055   0.061   0.177   0.206
 1981 211    47  15.40  24.40  15.00 -99.000   3.444   2.322   1.109 -99.000 -99.000 -99.000   3.431   2.322   1.109   0.000   0.000  219.01  119.84   55.43   64.41    0.00    0.00   0.224   0.157   0.055   0.114   0.100   0.080   0.068   0.059   0.065   0.189   0.232
 1981 212    48  14.70  23.10  14.60 -99.000   3.221   2.195   1.013 -99.000 -99.000 -99.000   3.208   2.195   1.013   0.000   0.000  222.23  123.05   57.63   65.42    0.00    0.00   0.202   0.137   0.051   0.105   0.093   0.075   0.063   0.054   0.060   0.174   0.219
 1981 213    49  20.40  26.00  13.40 -99.000   4.577   3.151   1.407 -99.000 -99.000 -99.000   4.558   3.151   1.407   0.000   0.000  226.80  127.61   60.78   66.83    0.00    0.00   0.280   0.184   0.070   0.143   0.128   0.104   0.089   0.077   0.085   0.247   0.315
 1981 214    50  13.70  24.60  15.70 -99.000   3.072   2.144   0.915 -99.000 -99.000 -99.000   3.060   2.144   0.915   0.000   0.000  229.88  130.67   62.92   67.75    0.00    0.00   0.180   0.124   0.045   0.095   0.084   0.067   0.057   0.049   0.054   0.159   0.214
 1981 215    51  20.00  25.60  14.70 -99.000   4.502   3.171   1.313 -99.000 -99.000 -99.000   4.484   3.171   1.313   0.000   0.000  234.38  135.15   66.09   69.06    0.00    0.00   0.239   0.179   0.060   0.139   0.123   0.099   0.084   0.073   0.081   0.239   0.317
 1981 216    52  18.30  24.60  15.80 -99.000   4.100   2.826   1.257 -99.000 -99.000 -99.000   4.083   2.826   1.257   0.000   0.000  238.48  139.23   68.92   70.32    0.00    0.00   0.217   0.165   0.056   0.132   0.120   0.097   0.082   0.071   0.080   0.238   0.283
 1981 217    53  19.70  24.80  15.70 -99.000   4.414   3.038   1.359 -99.000 -99.000 -99.000   4.396   3.038   1.359   0.000   0.000  242.89  143.63   71.95   71.68    0.00    0.00   0.223   0.173   0.059   0.144   0.131   0.106   0.090   0.079   0.089   0.264   0.304
 1981 218    54  20.50  25.10  15.20 -99.000   4.586   3.151   1.417 -99.000 -99.000 -99.000   4.568   3.151   1.417   0.000   0.000  247.48  148.20   75.11   73.09    0.00    0.00   0.263   0.190   0.065   0.144   0.131   0.106   0.090   0.078   0.088   0.262   0.315
 1981 219    55  23.00  25.30  14.30 -99.000   5.157   3.537   1.600 -99.000 -99.000 -99.000   5.137   3.537   1.600   0.000   0.000  252.63  153.34   78.64   74.69    0.00    0.00   0.297   0.215   0.073   0.162   0.147   0.120   0.101   0.088   0.099   0.296   0.354
 1981 220    56  22.20  25.70  13.50 -99.000   4.949   3.388   1.541 -99.000 -99.000 -99.000   4.929   3.388   1.541   0.000   0.000  257.58  158.26   82.03   76.23    0.00    0.00   0.269   0.200   0.069   0.158   0.146   0.119   0.101   0.088   0.099   0.295   0.339
 1981 221    57  22.30  26.20  15.60 -99.000   5.078   3.472   1.587 -99.000 -99.000 -99.000   5.059   3.472   1.587   0.000   0.000  262.66  163.32   85.50   77.82    0.00    0.00   0.259   0.197   0.068   0.164   0.154   0.126   0.107   0.093   0.105   0.313   0.347
 1981 222    58  18.30  25.20  15.30 -99.000   4.103   2.800   1.287 -99.000 -99.000 -99.000   3.770   2.800   0.971   0.000   0.000  266.76  167.09   88.30   78.79    0.00    0.00   0.786   0.103   0.018   0.025   0.014   0.008   0.005   0.003   0.003   0.006   0.280
 1981 223    59  16.90  25.20  15.90 -99.000   3.801   2.589   1.197 -99.000 -99.000 -99.000   3.627   2.589   1.038   0.000   0.000  270.56  170.72   90.89   79.83    0.00    0.00   0.858   0.099   0.017   0.024   0.014   0.008   0.005   0.003   0.003   0.006   0.259
 1981 224    60  13.10  23.20  16.30 -99.000   2.900   1.971   0.917 -99.000 -99.000 -99.000   2.888   1.971   0.917   0.000   0.000  273.46  173.61   92.86   80.75    0.00    0.00   0.187   0.112   0.035   0.084   0.085   0.070   0.060   0.052   0.058   0.174   0.197
 1981 225    61  21.00  24.60  15.10 -99.000   4.706   3.194   1.493 -99.000 -99.000 -99.000   4.688   3.194   1.493   0.000   0.000  278.17  178.30   96.06   82.24    0.00    0.00   0.324   0.203   0.067   0.134   0.130   0.107   0.091   0.080   0.090   0.268   0.319
 1981 226    62  21.00  25.30  15.40 -99.000   4.757   3.223   1.515 -99.000 -99.000 -99.000   4.738   3.223   1.515   0.000   0.000  282.93  183.03   99.28   83.75    0.00    0.00   0.317   0.207   0.073   0.144   0.132   0.108   0.092   0.080   0.090   0.271   0.322
 1981 227    63  20.40  25.30  14.60 -99.000   4.587   3.102   1.467 -99.000 -99.000 -99.000   4.569   3.102   1.467   0.000   0.000  287.51  187.60  102.38   85.22    0.00    0.00   0.269   0.192   0.067   0.150   0.135   0.110   0.094   0.082   0.092   0.275   0.310
 1981 228    64  14.40  23.50  15.30 -99.000   3.176   2.144   1.019 -99.000 -99.000 -99.000   3.163   2.144   1.019   0.000   0.000  290.69  190.77  104.53   86.24    0.00    0.00   0.188   0.130   0.045   0.104   0.095   0.077   0.066   0.057   0.064   0.192   0.214
 1981 229    65  21.90  25.20  14.80 -99.000   4.920   3.316   1.585 -99.000 -99.000 -99.000   4.901   3.316   1.585   0.000   0.000  295.61  195.67  107.84   87.83    0.00    0.00   0.308   0.204   0.069   0.159   0.145   0.118   0.101   0.088   0.099   0.294   0.332
 1981 230    66  25.00  27.30  13.50 -99.000   5.707   3.802   1.883 -99.000 -99.000 -99.000   5.686   3.802   1.883   0.000   0.000  301.32  201.35  111.64   89.71    0.00    0.00   0.383   0.242   0.082   0.187   0.170   0.138   0.118   0.103   0.116   0.345   0.380
 1981 231    67  25.70  26.60  13.80 -99.000   5.846   3.889   1.934 -99.000 -99.000 -99.000   5.823   3.889   1.934   0.000   0.000  307.16  207.18  115.53   91.64    0.00    0.00   0.361   0.249   0.085   0.198   0.179   0.145   0.124   0.108   0.122   0.364   0.389
 1981 232    68  21.80  25.10  15.10 -99.000   4.901   3.256   1.627 -99.000 -99.000 -99.000   4.883   3.256   1.627   0.000   0.000  312.06  212.06  118.79   93.27    0.00    0.00   0.303   0.206   0.068   0.166   0.152   0.123   0.105   0.092   0.104   0.309   0.326
 1981 233    69  22.10  24.50  14.00 -99.000   4.898   3.248   1.631 -99.000 -99.000 -99.000   4.879   3.248   1.631   0.000   0.000  316.96  216.94  122.04   94.90    0.00    0.00   0.296   0.207   0.065   0.165   0.154   0.125   0.107   0.093   0.105   0.315   0.325
 1981 234    70  17.60  24.20  15.10 -99.000   3.913   2.590   1.308 -99.000 -99.000 -99.000   3.898   2.590   1.308   0.000   0.000  320.88  220.84  124.63   96.21    0.00    0.00   0.255   0.179   0.058   0.129   0.118   0.095   0.082   0.071   0.080   0.240   0.259
 1981 235    71  19.30  24.60  16.00 -99.000   4.371   2.888   1.467 -99.000 -99.000 -99.000   4.355   2.888   1.467   0.000   0.000  325.25  225.19  127.51   97.68    0.00    0.00   0.276   0.201   0.068   0.149   0.134   0.108   0.092   0.080   0.090   0.269   0.289
 1981 236    72  17.90  24.00  15.30 -99.000   3.986   2.626   1.344 -99.000 -99.000 -99.000   3.970   2.626   1.344   0.000   0.000  329.23  229.16  130.14   99.02    0.00    0.00   0.236   0.177   0.060   0.139   0.127   0.103   0.087   0.076   0.086   0.254   0.263
 1981 237    73  19.80  24.90  15.50 -99.000   4.458   2.930   1.511 -99.000 -99.000 -99.000   4.035   2.930   1.106   0.000   0.000  333.69  233.20  133.07  100.13    0.00    0.00   0.905   0.116   0.019   0.026   0.014   0.008   0.005   0.003   0.003   0.006   0.293
 1981 238    74  18.70  25.00  15.80 -99.000   4.216   2.763   1.438 -99.000 -99.000 -99.000   4.201   2.763   1.438   0.000   0.000  337.91  237.40  135.83  101.56    0.00    0.00   0.269   0.186   0.063   0.146   0.133   0.108   0.093   0.081   0.091   0.269   0.276
 1981 239    75  21.10  25.30  14.90 -99.000   4.786   3.125   1.642 -99.000 -99.000 -99.000   4.768   3.125   1.642   0.000   0.000  342.69  242.16  138.96  103.21    0.00    0.00   0.314   0.214   0.072   0.166   0.151   0.123   0.105   0.091   0.103   0.304   0.313
 1981 240    76  22.90  26.10  14.30 -99.000   5.195   3.380   1.795 -99.000 -99.000 -99.000   5.176   3.380   1.795   0.000   0.000  347.89  247.34  142.34  105.00    0.00    0.00   0.319   0.227   0.076   0.185   0.171   0.139   0.118   0.103   0.115   0.342   0.338
 1981 241    77  22.40  25.80  14.20 -99.000   5.051   3.273   1.759 -99.000 -99.000 -99.000   4.353   3.273   1.080   0.000   0.000  352.94  251.69  145.61  106.08    0.00    0.00   0.889   0.109   0.018   0.025   0.014   0.008   0.005   0.003   0.003   0.006   0.327
 1981 242    78  19.50  25.00  15.30 -99.000   4.385   2.829   1.539 -99.000 -99.000 -99.000   4.368   2.829   1.539   0.000   0.000  357.32  256.06  148.44  107.62    0.00    0.00   0.288   0.198   0.065   0.152   0.144   0.117   0.100   0.087   0.098   0.290   0.283
 1981 243    79  17.70  24.20  16.40 -99.000   4.018   2.580   1.423 -99.000 -99.000 -99.000   4.003   2.580   1.423   0.000   0.000  361.34  260.06  151.02  109.04    0.00    0.00   0.273   0.188   0.063   0.142   0.131   0.106   0.091   0.079   0.088   0.263   0.258
 1981 244    80  16.50  23.40  14.50 -99.000   3.637   2.323   1.301 -99.000 -99.000 -99.000   3.623   2.323   1.301   0.000   0.000  364.98  263.69  153.34  110.34    0.00    0.00   0.232   0.169   0.056   0.134   0.124   0.099   0.085   0.074   0.083   0.246   0.232
 1981 245    81  27.40  26.80  13.80 -99.000   6.250   3.972   2.255 -99.000 -99.000 -99.000   5.093   3.972   1.121   0.000   0.000  371.23  268.78  157.32  111.47    0.00    0.00   0.922   0.115   0.018   0.025   0.014   0.008   0.005   0.003   0.003   0.006   0.397
 1981 246    82  20.30  25.40  14.40 -99.000   4.565   2.883   1.666 -99.000 -99.000 -99.000   3.847   2.883   0.964   0.000   0.000  375.79  272.63  160.20  112.43    0.00    0.00   0.777   0.107   0.017   0.025   0.014   0.008   0.005   0.003   0.003   0.006   0.288
 1981 247    83  22.20  26.00  13.90 -99.000   5.002   3.138   1.846 -99.000 -99.000 -99.000   4.984   3.138   1.846   0.000   0.000  380.80  277.61  163.34  114.28    0.00    0.00   0.332   0.229   0.068   0.181   0.179   0.143   0.124   0.108   0.121   0.360   0.314
 1981 248    84  19.00  24.30  14.40 -99.000   4.259   2.652   1.591 -99.000 -99.000 -99.000   4.243   2.652   1.591   0.000   0.000  385.06  281.85  165.99  115.87    0.00    0.00   0.351   0.208   0.062   0.141   0.142   0.115   0.099   0.086   0.097   0.289   0.265
 1981 249    85  20.80  25.20  14.80 -99.000   4.736   2.928   1.791 -99.000 -99.000 -99.000   4.719   2.928   1.791   0.000   0.000  389.79  286.57  168.92  117.66    0.00    0.00   0.345   0.240   0.080   0.169   0.164   0.132   0.115   0.100   0.112   0.334   0.293
 1981 250    86  20.10  25.70  14.70 -99.000   4.582   2.809   1.757 -99.000 -99.000 -99.000   4.566   2.809   1.757   0.000   0.000  394.37  291.14  171.73  119.41    0.00    0.00   0.354   0.243   0.083   0.171   0.156   0.124   0.108   0.094   0.106   0.317   0.281
 1981 251    87  23.80  26.50  15.00 -99.000   5.524   3.356   2.150 -99.000 -99.000 -99.000   5.505   3.356   2.150   0.000   0.000  399.90  296.65  175.08  121.56    0.00    0.00   0.407   0.293   0.100   0.218   0.196   0.157   0.136   0.118   0.132   0.392   0.336
 1981 252    88  22.70  26.30  15.70 -99.000   5.263   3.163   2.082 -99.000 -99.000 -99.000   5.245   3.163   2.082   0.000   0.000  405.16  301.89  178.24  123.65    0.00    0.00   0.367   0.275   0.093   0.213   0.197   0.160   0.137   0.118   0.131   0.391   0.316
 1981 253    89  20.50  25.40  15.80 -99.000   4.702   2.793   1.893 -99.000 -99.000 -99.000   3.880   2.793   1.088   0.000   0.000  409.86  305.77  181.04  124.73    0.00    0.00   0.890   0.114   0.019   0.025   0.014   0.008   0.005   0.003   0.003   0.005   0.279
 1981 254    90  17.30  24.40  15.30 -99.000   3.899   2.287   1.599 -99.000 -99.000 -99.000   3.886   2.287   1.599   0.000   0.000  413.76  309.66  183.32  126.33    0.00    0.00   0.284   0.205   0.066   0.158   0.153   0.124   0.107   0.092   0.103   0.306   0.229
 1981 255    91  21.30  24.80  14.50 -99.000   4.835   2.800   2.019 -99.000 -99.000 -99.000   4.819   2.800   2.019   0.000   0.000  418.60  314.47  186.12  128.35    0.00    0.00   0.377   0.265   0.080   0.192   0.190   0.155   0.133   0.115   0.128   0.383   0.280
 1981 256    92  18.10  23.80  15.40 -99.000   4.079   2.330   1.736 -99.000 -99.000 -99.000   3.464   2.330   1.134   0.000   0.000  422.68  317.94  188.45  129.49    0.00    0.00   0.941   0.115   0.017   0.023   0.014   0.008   0.005   0.003   0.003   0.005   0.233
 1981 257    93  14.80  23.30  15.40 -99.000   3.311   1.863   1.436 -99.000 -99.000 -99.000   3.300   1.863   1.436   0.000   0.000  425.99  321.24  190.32  130.92    0.00    0.00   0.262   0.188   0.054   0.131   0.137   0.112   0.097   0.084   0.093   0.278   0.186
 1981 258    94  20.10  24.90  16.10 -99.000   4.642   2.573   2.055 -99.000 -99.000 -99.000   4.628   2.573   2.055   0.000   0.000  430.63  325.87  192.89  132.98    0.00    0.00   0.437   0.275   0.082   0.175   0.185   0.151   0.131   0.113   0.126   0.378   0.257
 1981 259    95  20.70  25.30  15.60 -99.000   4.815   2.619   2.181 -99.000 -99.000 -99.000   4.800   2.619   2.181   0.000   0.000  435.44  330.67  195.51  135.16    0.00    0.00   0.486   0.296   0.100   0.182   0.190   0.155   0.135   0.117   0.130   0.389   0.262
 1981 260    96  22.50  26.00  13.80 -99.000   5.213   2.778   2.419 -99.000 -99.000 -99.000   5.197   2.778   2.419   0.000   0.000  440.66  335.86  198.29  137.58    0.00    0.00   0.471   0.326   0.112   0.222   0.218   0.179   0.156   0.135   0.150   0.450   0.278
 1981 261    97  17.30  24.30  15.30 -99.000   3.958   2.064   1.881 -99.000 -99.000 -99.000   3.946   2.064   1.881   0.000   0.000  444.62  339.81  200.35  139.46    0.00    0.00   0.377   0.250   0.085   0.177   0.167   0.137   0.120   0.104   0.116   0.347   0.206
 1981 262    98  18.90  24.10  15.40 -99.000   4.345   2.215   2.118 -99.000 -99.000 -99.000   4.332   2.215   2.118   0.000   0.000  448.96  344.14  202.57  141.58    0.00    0.00   0.447   0.306   0.104   0.206   0.184   0.146   0.127   0.110   0.122   0.367   0.221
 1981 263    99  22.90  25.00  15.10 -99.000   5.335   2.651   2.668 -99.000 -99.000 -99.000   5.319   2.651   2.668   0.000   0.000  454.30  349.46  205.22  144.24    0.00    0.00   0.500   0.376   0.127   0.277   0.246   0.194   0.166   0.144   0.162   0.475   0.265
 1981 264   100  23.80  26.30  16.50 -99.000   5.667   2.737   2.915 -99.000 -99.000 -99.000   5.652   2.737   2.915   0.000   0.000  459.96  355.11  207.95  147.16    0.00    0.00   0.554   0.395   0.137   0.297   0.269   0.217   0.184   0.160   0.180   0.521   0.274
 1981 265   101  18.40  25.10  15.00 -99.000   4.293   2.001   2.281 -99.000 -99.000 -99.000   4.282   2.001   2.281   0.000   0.000  464.26  359.39  209.96  149.44    0.00    0.00   0.467   0.301   0.106   0.228   0.207   0.168   0.141   0.123   0.139   0.400   0.200
 1981 266   102  21.40  25.70  14.70 -99.000   5.050   2.272   2.765 -99.000 -99.000 -99.000   5.037   2.272   2.765   0.000   0.000  469.31  364.43  212.23  152.20    0.00    0.00   0.520   0.363   0.125   0.284   0.258   0.209   0.177   0.154   0.173   0.501   0.227
 1981 267   103  23.20  26.50  13.00 -99.000   5.432   2.348   3.070 -99.000 -99.000 -99.000   5.418   2.348   3.070   0.000   0.000  474.74  369.85  214.58  155.27    0.00    0.00   0.543   0.397   0.137   0.316   0.292   0.237   0.202   0.176   0.198   0.573   0.235
 1981 268   104  22.10  25.80  13.70 -99.000   5.161   2.136   3.012 -99.000 -99.000 -99.000   3.221   2.136   1.084   0.000   0.000  479.90  373.07  216.71  156.36    0.00    0.00   0.889   0.113   0.019   0.025   0.014   0.008   0.005   0.003   0.003   0.005   0.214
 1981 269   105  14.50  22.80  15.10 -99.000   3.301   1.302   1.991 -99.000 -99.000 -99.000   3.293   1.302   1.991   0.000   0.000  483.20  376.36  218.01  158.35    0.00    0.00   0.365   0.255   0.086   0.195   0.188   0.153   0.132   0.115   0.129   0.373   0.130
 1981 270   106  20.60  24.10  14.70 -99.000   4.809   1.897   2.901 -99.000 -99.000 -99.000   4.798   1.897   2.901   0.000   0.000  488.01  381.16  219.91  161.25    0.00    0.00   0.549   0.381   0.127   0.279   0.269   0.219   0.189   0.165   0.186   0.537   0.190
 1981 271   107  20.80  25.20  15.40 -99.000   4.917   1.940   2.966 -99.000 -99.000 -99.000   4.906   1.940   2.966   0.000   0.000  492.93  386.07  221.85  164.22    0.00    0.00   0.535   0.384   0.131   0.287   0.279   0.228   0.197   0.172   0.194   0.561   0.194
 1981 272   108  17.60  23.50  15.30 -99.000   4.063   1.602   2.451 -99.000 -99.000 -99.000   2.687   1.602   1.084   0.000   0.000  496.99  388.75  223.45  165.30    0.00    0.00   0.894   0.111   0.018   0.023   0.014   0.008   0.005   0.003   0.003   0.005   0.160

*DSSAT Cropping System Model Ver. 4.7.5.008 -release  JAN 07, 2021 20:33:24

*RUN   2        : ERiMA DCC1                MZCER047 ETMZmelk    1
 MODEL          : MZCER047 - Maize
 EXPERIMENT     : ETMZmelk SN MELKSSAL
 DATA PATH      : C:\IRI\Python_Dash\ET_DSS_hist\TEST\
 TREATMENT  1   : ERiMA DCC1                MZCER047
  
!                                                                                                                                                                                        Soil evaporation (mm/d) by soil depth (cm):
!                                                                                                                                                                                        0-5    5-15   15-20   20-35   35-50   50-65   65-81   81-97  97-118 118-200
@YEAR DOY   DAS   SRAA  TMAXA  TMINA    REFA    EOAA    EOPA    EOSA    KCAA    KCBA    KEAA    ETAA    EPAA    ESAA    EFAA    EMAA    EOAC    ETAC    EPAC    ESAC    EFAC    EMAC    ES1D    ES2D    ES3D    ES4D    ES5D    ES6D    ES7D    ES8D    ES9D   ES10D   TRWUD
 1982 165     1  20.60  29.10  15.00 -99.000   5.391   0.000   5.391 -99.000 -99.000 -99.000   1.007   0.000   1.007   0.000   0.000    5.39    1.01    0.00    1.01    0.00    0.00   0.824   0.105   0.017   0.022   0.015   0.008   0.005   0.003   0.003   0.006   0.000
 1982 166     2  18.60  26.60  15.90 -99.000   4.742   0.000   4.742 -99.000 -99.000 -99.000   0.932   0.000   0.932   0.000   0.000   10.13    1.94    0.00    1.94    0.00    0.00   0.749   0.104   0.017   0.022   0.015   0.008   0.005   0.003   0.003   0.006   0.000
 1982 167     3  17.10  23.60  15.10 -99.000   4.164   0.000   4.164 -99.000 -99.000 -99.000   0.863   0.000   0.863   0.000   0.000   14.30    2.80    0.00    2.80    0.00    0.00   0.681   0.104   0.017   0.021   0.015   0.008   0.005   0.003   0.003   0.006   0.000
 1982 168     4  24.10  32.00  15.00 -99.000   6.444   0.000   6.444 -99.000 -99.000 -99.000   0.800   0.000   0.800   0.000   0.000   20.74    3.60    0.00    3.60    0.00    0.00   0.619   0.103   0.017   0.021   0.015   0.008   0.005   0.003   0.003   0.006   0.000
 1982 169     5  19.00  26.80  15.60 -99.000   4.796   0.000   4.796 -99.000 -99.000 -99.000   0.743   0.000   0.743   0.000   0.000   25.54    4.35    0.00    4.35    0.00    0.00   0.563   0.102   0.017   0.021   0.015   0.008   0.005   0.003   0.003   0.006   0.000
 1982 170     6  17.10  22.40  15.70 -99.000   4.086   0.000   4.086 -99.000 -99.000 -99.000   0.691   0.000   0.691   0.000   0.000   29.62    5.04    0.00    5.04    0.00    0.00   0.512   0.102   0.017   0.021   0.015   0.008   0.005   0.003   0.003   0.006   0.000
 1982 171     7  19.80  26.50  15.00 -99.000   4.930   0.000   4.930 -99.000 -99.000 -99.000   0.876   0.000   0.876   0.000   0.000   34.55    5.91    0.00    5.91    0.00    0.00   0.697   0.101   0.017   0.021   0.015   0.008   0.005   0.003   0.003   0.006   0.000
 1982 172     8  20.20  27.50  15.80 -99.000   5.233   0.000   5.233 -99.000 -99.000 -99.000   1.044   0.000   1.044   0.000   0.000   39.79    6.96    0.00    6.96    0.00    0.00   0.866   0.101   0.017   0.021   0.015   0.008   0.005   0.003   0.003   0.006   0.000
 1982 173     9  21.90  28.60  14.30 -99.000   5.654   0.013   5.641 -99.000 -99.000 -99.000   0.978   0.013   0.965   0.000   0.000   45.44    7.93    0.01    7.92    0.00    0.00   0.787   0.100   0.017   0.021   0.015   0.008   0.005   0.003   0.003   0.006   0.001
 1982 174    10  19.30  26.10  16.00 -99.000   4.883   0.023   4.861 -99.000 -99.000 -99.000   0.914   0.023   0.892   0.000   0.000   50.32    8.85    0.04    8.81    0.00    0.00   0.715   0.099   0.017   0.021   0.015   0.008   0.005   0.003   0.003   0.006   0.002
 1982 175    11  20.20  27.20  14.90 -99.000   5.113   0.036   5.077 -99.000 -99.000 -99.000   0.861   0.036   0.825   0.000   0.000   55.44    9.71    0.07    9.64    0.00    0.00   0.649   0.099   0.017   0.021   0.015   0.008   0.005   0.003   0.003   0.006   0.004
 1982 176    12  21.40  27.80  14.60 -99.000   5.422   0.052   5.370 -99.000 -99.000 -99.000   0.818   0.052   0.765   0.000   0.000   60.86   10.53    0.12   10.40    0.00    0.00   0.589   0.098   0.017   0.021   0.015   0.008   0.005   0.003   0.003   0.006   0.005
 1982 177    13  20.30  25.40  15.30 -99.000   5.011   0.063   4.947 -99.000 -99.000 -99.000   0.773   0.062   0.710   0.000   0.000   65.87   11.30    0.19   11.11    0.00    0.00   0.536   0.097   0.017   0.021   0.015   0.008   0.005   0.003   0.003   0.006   0.006
 1982 178    14  21.10  27.80  14.50 -99.000   5.303   0.116   5.187 -99.000 -99.000 -99.000   0.776   0.116   0.661   0.000   0.000   71.17   12.08    0.30   11.77    0.00    0.00   0.487   0.096   0.017   0.021   0.015   0.008   0.005   0.003   0.003   0.006   0.012
 1982 179    15  18.90  25.70  16.00 -99.000   4.672   0.150   4.521 -99.000 -99.000 -99.000   1.073   0.150   0.923   0.000   0.000   75.85   13.15    0.45   12.70    0.00    0.00   0.747   0.099   0.017   0.021   0.015   0.008   0.005   0.003   0.003   0.006   0.015
 1982 180    16  22.70  28.40  15.00 -99.000   5.899   0.259   5.639 -99.000 -99.000 -99.000   5.898   0.259   5.639   0.000   0.000   81.75   19.05    0.71   18.34    0.00    0.00   1.118   0.676   0.211   0.483   0.543   0.440   0.375   0.327   0.368   1.098   0.026
 1982 181    17  20.90  27.80  14.90 -99.000   5.394   0.327   5.066 -99.000 -99.000 -99.000   5.393   0.327   5.066   0.000   0.000   87.14   24.44    1.04   23.40    0.00    0.00   1.068   0.652   0.197   0.415   0.469   0.381   0.325   0.284   0.320   0.955   0.033
 1982 182    18  18.80  26.70  15.10 -99.000   4.814   0.379   4.433 -99.000 -99.000 -99.000   4.812   0.379   4.433   0.000   0.000   91.95   29.25    1.42   27.84    0.00    0.00   0.850   0.596   0.193   0.371   0.414   0.337   0.288   0.251   0.284   0.849   0.038
 1982 183    19  21.60  27.80  15.50 -99.000   5.540   0.538   4.999 -99.000 -99.000 -99.000   5.537   0.538   4.999   0.000   0.000   97.49   34.79    1.95   32.83    0.00    0.00   0.899   0.663   0.224   0.431   0.473   0.386   0.331   0.289   0.326   0.977   0.054
 1982 184    20  20.30  27.50  15.30 -99.000   5.138   0.608   4.526 -99.000 -99.000 -99.000   5.134   0.608   4.526   0.000   0.000  102.63   39.92    2.56   37.36    0.00    0.00   0.852   0.598   0.203   0.382   0.422   0.345   0.296   0.259   0.292   0.877   0.061
 1982 185    21  21.30  27.90  14.50 -99.000   5.413   0.760   4.649 -99.000 -99.000 -99.000   5.409   0.760   4.649   0.000   0.000  108.04   45.33    3.32   42.01    0.00    0.00   0.964   0.622   0.211   0.383   0.416   0.341   0.293   0.257   0.290   0.871   0.076
 1982 186    22  23.00  29.80  16.00 -99.000   6.032   0.994   5.033 -99.000 -99.000 -99.000   6.027   0.994   5.033   0.000   0.000  114.08   51.36    4.32   47.04    0.00    0.00   1.062   0.682   0.236   0.424   0.442   0.363   0.312   0.273   0.309   0.930   0.099
 1982 187    23  21.70  28.80  15.10 -99.000   5.557   1.080   4.471 -99.000 -99.000 -99.000   5.551   1.080   4.471   0.000   0.000  119.63   56.91    5.40   51.51    0.00    0.00   0.847   0.607   0.209   0.406   0.402   0.331   0.285   0.250   0.283   0.852   0.108
 1982 188    24  18.90  27.10  17.10 -99.000   4.755   1.065   3.684 -99.000 -99.000 -99.000   2.172   1.065   1.107   0.000   0.000  124.39   59.08    6.46   52.62    0.00    0.00   0.912   0.116   0.020   0.023   0.013   0.007   0.005   0.003   0.003   0.005   0.107
 1982 189    25  22.80  29.10  15.50 -99.000   5.743   1.461   4.274 -99.000 -99.000 -99.000   2.455   1.461   0.993   0.000   0.000  130.13   61.54    7.92   53.61    0.00    0.00   0.803   0.112   0.019   0.022   0.013   0.007   0.005   0.003   0.003   0.005   0.146
 1982 190    26  17.90  26.40  16.60 -99.000   4.367   1.257   3.102 -99.000 -99.000 -99.000   2.145   1.257   0.888   0.000   0.000  134.50   63.68    9.18   54.50    0.00    0.00   0.703   0.107   0.019   0.022   0.013   0.007   0.005   0.003   0.003   0.005   0.126
 1982 191    27  17.00  25.20  15.50 -99.000   4.023   1.285   2.731 -99.000 -99.000 -99.000   2.098   1.285   0.813   0.000   0.000  138.52   65.78   10.47   55.31    0.00    0.00   0.634   0.102   0.018   0.022   0.013   0.007   0.005   0.003   0.003   0.005   0.129
 1982 192    28  24.60  30.20  15.10 -99.000   6.110   2.134   3.964 -99.000 -99.000 -99.000   2.866   2.119   0.748   0.000   0.000  144.63   68.65   12.58   56.06    0.00    0.00   0.574   0.097   0.017   0.022   0.013   0.007   0.005   0.003   0.003   0.005   0.212
 1982 193    29  21.50  27.70  14.40 -99.000   5.123   1.985   3.127 -99.000 -99.000 -99.000   2.673   1.985   0.688   0.000   0.000  149.75   71.32   14.57   56.75    0.00    0.00   0.522   0.092   0.016   0.022   0.013   0.007   0.005   0.003   0.003   0.005   0.198
 1982 194    30  19.10  25.80  15.40 -99.000   4.461   1.846   2.604 -99.000 -99.000 -99.000   2.481   1.846   0.634   0.000   0.000  154.21   73.80   16.42   57.38    0.00    0.00   0.475   0.087   0.015   0.021   0.013   0.007   0.005   0.003   0.003   0.005   0.185
 1982 195    31  16.50  25.10  14.80 -99.000   3.784   1.664   2.110 -99.000 -99.000 -99.000   2.251   1.664   0.587   0.000   0.000  158.00   76.05   18.08   57.97    0.00    0.00   0.431   0.084   0.014   0.020   0.013   0.007   0.005   0.003   0.003   0.005   0.166
 1982 196    32  19.40  26.20  13.80 -99.000   4.450   2.082   2.356 -99.000 -99.000 -99.000   2.626   2.082   0.544   0.000   0.000  162.45   78.68   20.16   58.51    0.00    0.00   0.392   0.082   0.014   0.019   0.013   0.007   0.005   0.003   0.003   0.005   0.208
 1982 197    33  19.50  27.20  15.00 -99.000   4.549   2.236   2.301 -99.000 -99.000 -99.000   2.741   2.236   0.504   0.000   0.000  167.00   81.42   22.40   59.02    0.00    0.00   0.356   0.079   0.014   0.018   0.013   0.007   0.005   0.003   0.003   0.005   0.224
 1982 198    34  17.80  25.50  14.60 -99.000   4.040   2.085   1.943 -99.000 -99.000 -99.000   2.553   2.085   0.468   0.000   0.000  171.04   83.97   24.48   59.49    0.00    0.00   0.324   0.077   0.013   0.017   0.013   0.007   0.005   0.003   0.003   0.005   0.209
 1982 199    35  13.10  22.90  14.80 -99.000   2.873   1.559   1.305 -99.000 -99.000 -99.000   1.708   1.273   0.435   0.000   0.000  173.91   85.68   25.76   59.92    0.00    0.00   0.295   0.076   0.013   0.015   0.013   0.007   0.005   0.003   0.003   0.005   0.127
 1982 200    36  13.00  22.50  14.60 -99.000   2.828   1.552   1.267 -99.000 -99.000 -99.000   1.249   0.843   0.406   0.000   0.000  176.74   86.93   26.60   60.33    0.00    0.00   0.268   0.074   0.013   0.015   0.013   0.007   0.005   0.003   0.003   0.005   0.084
 1982 201    37  18.10  25.50  14.20 -99.000   4.070   2.224   1.833 -99.000 -99.000 -99.000   1.032   0.653   0.379   0.000   0.000  180.81   87.96   27.25   60.71    0.00    0.00   0.243   0.073   0.013   0.014   0.013   0.007   0.005   0.003   0.003   0.005   0.065
 1982 202    38  17.40  25.40  14.80 -99.000   3.929   2.113   1.804 -99.000 -99.000 -99.000   1.383   0.538   0.845   0.000   0.000  184.74   89.34   27.79   61.55    0.00    0.00   0.702   0.080   0.012   0.014   0.013   0.007   0.005   0.003   0.003   0.005   0.054
 1982 203    39  10.00  21.20  15.20 -99.000   2.205   1.163   1.036 -99.000 -99.000 -99.000   2.198   1.163   1.036   0.000   0.000  186.95   91.54   28.95   62.59    0.00    0.00   0.246   0.121   0.030   0.060   0.096   0.080   0.069   0.060   0.068   0.206   0.116
 1982 204    40  20.00  24.70  14.60 -99.000   4.589   2.452   2.123 -99.000 -99.000 -99.000   4.575   2.452   2.123   0.000   0.000  191.53   96.12   31.41   64.71    0.00    0.00   0.448   0.290   0.062   0.123   0.198   0.165   0.142   0.125   0.142   0.428   0.245
 1982 205    41  19.20  24.50  15.20 -99.000   4.380   2.397   1.969 -99.000 -99.000 -99.000   4.366   2.397   1.969   0.000   0.000  195.91  100.48   33.80   66.68    0.00    0.00   0.437   0.273   0.070   0.110   0.178   0.148   0.128   0.112   0.128   0.385   0.240
 1982 206    42  16.30  25.40  14.70 -99.000   3.759   2.102   1.645 -99.000 -99.000 -99.000   3.747   2.102   1.645   0.000   0.000  199.67  104.23   35.90   68.33    0.00    0.00   0.387   0.230   0.073   0.090   0.142   0.119   0.103   0.090   0.102   0.309   0.210
 1982 207    43  19.30  25.70  14.70 -99.000   4.458   2.536   1.907 -99.000 -99.000 -99.000   4.443   2.536   1.907   0.000   0.000  204.13  108.67   38.44   70.23    0.00    0.00   0.430   0.268   0.091   0.111   0.165   0.138   0.119   0.105   0.119   0.360   0.254
 1982 208    44  20.30  26.60  15.00 -99.000   4.731   2.743   1.972 -99.000 -99.000 -99.000   4.715   2.743   1.972   0.000   0.000  208.86  113.39   41.18   72.20    0.00    0.00   0.436   0.273   0.095   0.122   0.171   0.143   0.124   0.109   0.124   0.375   0.274
 1982 209    45  20.80  25.50  15.40 -99.000   4.790   2.830   1.944 -99.000 -99.000 -99.000   4.773   2.830   1.944   0.000   0.000  213.65  118.16   44.01   74.15    0.00    0.00   0.439   0.274   0.096   0.129   0.165   0.138   0.119   0.105   0.119   0.361   0.283
 1982 210    46  20.50  25.10  15.70 -99.000   4.711   2.836   1.859 -99.000 -99.000 -99.000   4.695   2.836   1.859   0.000   0.000  218.36  122.86   46.85   76.01    0.00    0.00   0.425   0.270   0.097   0.138   0.152   0.127   0.110   0.097   0.110   0.334   0.284
 1982 211    47  15.90  24.10  15.30 -99.000   3.592   2.201   1.378 -99.000 -99.000 -99.000   3.579   2.201   1.378   0.000   0.000  221.95  126.43   49.05   77.39    0.00    0.00   0.306   0.197   0.073   0.115   0.112   0.094   0.081   0.072   0.081   0.247   0.220
 1982 212    48  17.70  25.00  15.20 -99.000   4.028   2.502   1.511 -99.000 -99.000 -99.000   4.013   2.502   1.511   0.000   0.000  225.98  130.45   51.55   78.90    0.00    0.00   0.333   0.217   0.081   0.142   0.120   0.101   0.088   0.077   0.088   0.266   0.250
 1982 213    49  15.70  23.10  15.70 -99.000   3.504   2.209   1.282 -99.000 -99.000 -99.000   3.491   2.209   1.282   0.000   0.000  229.48  133.94   53.76   80.18    0.00    0.00   0.284   0.183   0.069   0.130   0.103   0.084   0.073   0.064   0.073   0.221   0.221
 1982 214    50  12.90  22.10  15.10 -99.000   2.826   1.804   1.011 -99.000 -99.000 -99.000   2.815   1.804   1.011   0.000   0.000  232.31  136.75   55.56   81.19    0.00    0.00   0.224   0.140   0.053   0.105   0.087   0.066   0.057   0.050   0.057   0.173   0.180
 1982 215    51  21.40  25.10  15.40 -99.000   4.870   3.142   1.710 -99.000 -99.000 -99.000   4.852   3.142   1.710   0.000   0.000  237.18  141.60   58.71   82.90    0.00    0.00   0.374   0.239   0.090   0.178   0.153   0.113   0.095   0.084   0.095   0.288   0.314
 1982 216    52  22.90  25.60  15.40 -99.000   5.229   3.430   1.779 -99.000 -99.000 -99.000   5.209   3.430   1.779   0.000   0.000  242.41  146.81   62.14   84.68    0.00    0.00   0.377   0.244   0.092   0.187   0.165   0.125   0.100   0.088   0.100   0.302   0.343
 1982 217    53  20.20  25.40  16.60 -99.000   4.638   3.043   1.578 -99.000 -99.000 -99.000   4.621   3.043   1.578   0.000   0.000  247.05  151.44   65.18   86.26    0.00    0.00   0.296   0.208   0.074   0.168   0.152   0.121   0.098   0.083   0.093   0.284   0.304
 1982 218    54  18.90  24.30  15.80 -99.000   4.241   2.782   1.443 -99.000 -99.000 -99.000   4.225   2.782   1.443   0.000   0.000  251.29  155.66   67.96   87.70    0.00    0.00   0.292   0.186   0.066   0.149   0.136   0.109   0.093   0.075   0.084   0.254   0.278
 1982 219    55  17.30  23.50  15.60 -99.000   3.858   2.531   1.313 -99.000 -99.000 -99.000   3.844   2.531   1.313   0.000   0.000  255.15  159.50   70.49   89.01    0.00    0.00   0.253   0.172   0.059   0.137   0.124   0.101   0.086   0.072   0.077   0.234   0.253
 1982 220    56  16.60  23.20  14.60 -99.000   3.643   2.389   1.240 -99.000 -99.000 -99.000   3.629   2.389   1.240   0.000   0.000  258.79  163.13   72.88   90.25    0.00    0.00   0.254   0.162   0.056   0.126   0.115   0.093   0.079   0.069   0.071   0.215   0.239
 1982 221    57  14.90  24.00  15.70 -99.000   3.347   2.195   1.139 -99.000 -99.000 -99.000   3.334   2.195   1.139   0.000   0.000  262.14  166.47   75.08   91.39    0.00    0.00   0.243   0.163   0.056   0.115   0.102   0.082   0.069   0.060   0.062   0.187   0.220
 1982 222    58  19.50  24.70  15.10 -99.000   4.396   2.883   1.496 -99.000 -99.000 -99.000   4.379   2.883   1.496   0.000   0.000  266.53  170.85   77.96   92.89    0.00    0.00   0.313   0.214   0.077   0.155   0.136   0.108   0.091   0.078   0.083   0.240   0.288
 1982 223    59  20.50  25.60  15.30 -99.000   4.677   3.068   1.592 -99.000 -99.000 -99.000   4.660   3.068   1.592   0.000   0.000  271.21  175.51   81.03   94.48    0.00    0.00   0.298   0.212   0.075   0.167   0.150   0.120   0.102   0.088   0.097   0.282   0.307
 1982 224    60  17.60  24.70  15.40 -99.000   3.958   2.596   1.347 -99.000 -99.000 -99.000   3.943   2.596   1.347   0.000   0.000  275.17  179.45   83.62   95.83    0.00    0.00   0.267   0.177   0.063   0.137   0.124   0.100   0.084   0.073   0.081   0.241   0.260
 1982 225    61  18.50  23.80  15.70 -99.000   4.145   2.716   1.414 -99.000 -99.000 -99.000   4.130   2.716   1.414   0.000   0.000  279.31  183.58   86.34   97.24    0.00    0.00   0.294   0.199   0.069   0.144   0.127   0.101   0.085   0.073   0.082   0.240   0.272
 1982 226    62  11.20  21.10  15.60 -99.000   2.426   1.586   0.830 -99.000 -99.000 -99.000   2.416   1.586   0.830   0.000   0.000  281.74  186.00   87.93   98.07    0.00    0.00   0.153   0.114   0.039   0.087   0.077   0.062   0.052   0.045   0.051   0.150   0.159
 1982 227    63  18.40  24.20  15.10 -99.000   4.108   2.682   1.410 -99.000 -99.000 -99.000   4.092   2.682   1.410   0.000   0.000  285.85  190.09   90.61   99.48    0.00    0.00   0.248   0.186   0.063   0.148   0.133   0.107   0.091   0.079   0.089   0.265   0.268
 1982 228    64  18.50  24.50  16.00 -99.000   4.168   2.717   1.436 -99.000 -99.000 -99.000   4.152   2.717   1.436   0.000   0.000  290.02  194.24   93.32  100.92    0.00    0.00   0.276   0.195   0.068   0.146   0.131   0.106   0.089   0.078   0.087   0.260   0.272
 1982 229    65  16.80  23.80  15.90 -99.000   3.774   2.455   1.304 -99.000 -99.000 -99.000   3.759   2.455   1.304   0.000   0.000  293.79  198.00   95.78  102.22    0.00    0.00   0.244   0.175   0.060   0.133   0.120   0.097   0.082   0.072   0.081   0.240   0.245
 1982 230    66  21.60  24.60  15.40 -99.000   4.859   3.155   1.685 -99.000 -99.000 -99.000   4.841   3.155   1.685   0.000   0.000  298.65  202.84   98.93  103.91    0.00    0.00   0.333   0.232   0.082   0.169   0.152   0.122   0.104   0.090   0.101   0.301   0.316
 1982 231    67  12.40  22.60  15.70 -99.000   2.745   1.760   0.974 -99.000 -99.000 -99.000   2.734   1.760   0.974   0.000   0.000  301.39  205.57  100.69  104.88    0.00    0.00   0.181   0.131   0.045   0.099   0.090   0.072   0.062   0.054   0.060   0.179   0.176
 1982 232    68  19.80  24.30  15.70 -99.000   4.456   2.855   1.585 -99.000 -99.000 -99.000   4.440   2.855   1.585   0.000   0.000  305.85  210.01  103.55  106.46    0.00    0.00   0.279   0.207   0.071   0.164   0.150   0.121   0.103   0.090   0.101   0.300   0.286
 1982 233    69  21.10  24.60  15.10 -99.000   4.734   3.028   1.688 -99.000 -99.000 -99.000   4.717   3.028   1.688   0.000   0.000  310.58  214.73  106.58  108.15    0.00    0.00   0.287   0.210   0.073   0.176   0.163   0.132   0.113   0.098   0.110   0.327   0.303
 1982 234    70  22.60  26.80  13.90 -99.000   5.151   3.289   1.843 -99.000 -99.000 -99.000   5.132   3.289   1.843   0.000   0.000  315.73  219.86  109.87  110.00    0.00    0.00   0.301   0.217   0.076   0.193   0.182   0.147   0.126   0.110   0.123   0.367   0.329
 1982 235    71  20.50  25.00  15.50 -99.000   4.627   2.949   1.661 -99.000 -99.000 -99.000   4.610   2.949   1.661   0.000   0.000  320.36  224.47  112.82  111.66    0.00    0.00   0.259   0.184   0.065   0.175   0.168   0.136   0.117   0.102   0.114   0.341   0.295
 1982 236    72  18.20  24.10  15.00 -99.000   4.043   2.570   1.458 -99.000 -99.000 -99.000   3.475   2.570   0.905   0.000   0.000  324.40  227.95  115.39  112.56    0.00    0.00   0.737   0.090   0.015   0.024   0.014   0.008   0.005   0.003   0.003   0.006   0.257
 1982 237    73  19.70  24.80  16.20 -99.000   4.449   2.822   1.611 -99.000 -99.000 -99.000   4.433   2.822   1.611   0.000   0.000  328.85  232.38  118.21  114.17    0.00    0.00   0.286   0.215   0.073   0.158   0.152   0.122   0.105   0.091   0.102   0.306   0.282
 1982 238    74  19.20  24.90  15.60 -99.000   4.377   2.768   1.593 -99.000 -99.000 -99.000   4.361   2.768   1.593   0.000   0.000  333.23  236.74  120.98  115.77    0.00    0.00   0.300   0.224   0.076   0.157   0.145   0.116   0.100   0.087   0.098   0.291   0.277
 1982 239    75  19.50  25.40  15.90 -99.000   4.461   2.813   1.633 -99.000 -99.000 -99.000   4.445   2.813   1.633   0.000   0.000  337.69  241.19  123.79  117.40    0.00    0.00   0.288   0.217   0.073   0.168   0.153   0.124   0.106   0.092   0.104   0.309   0.281
 1982 240    76  20.80  25.10  15.10 -99.000   4.704   2.954   1.732 -99.000 -99.000 -99.000   4.084   2.954   1.129   0.000   0.000  342.40  245.27  126.74  118.53    0.00    0.00   0.928   0.117   0.019   0.026   0.015   0.008   0.005   0.003   0.003   0.006   0.295
 1982 241    77  24.20  26.80  14.30 -99.000   5.539   3.466   2.053 -99.000 -99.000 -99.000   4.469   3.466   1.003   0.000   0.000  347.93  249.74  130.21  119.53    0.00    0.00   0.811   0.110   0.018   0.025   0.014   0.008   0.005   0.003   0.003   0.006   0.347
 1982 242    78  25.60  27.70  14.50 -99.000   5.920   3.688   2.211 -99.000 -99.000 -99.000   4.571   3.688   0.883   0.000   0.000  353.85  254.31  133.90  120.41    0.00    0.00   0.701   0.101   0.017   0.025   0.014   0.008   0.005   0.003   0.003   0.006   0.369
 1982 243    79  25.50  27.60  14.00 -99.000   5.861   3.633   2.207 -99.000 -99.000 -99.000   5.841   3.633   2.207   0.000   0.000  359.72  260.15  137.53  122.62    0.00    0.00   0.391   0.291   0.096   0.217   0.208   0.169   0.145   0.126   0.142   0.423   0.363
 1982 244    80  19.90  24.70  15.10 -99.000   4.520   2.787   1.718 -99.000 -99.000 -99.000   4.504   2.787   1.718   0.000   0.000  364.24  264.66  140.32  124.34    0.00    0.00   0.327   0.235   0.078   0.167   0.156   0.127   0.109   0.095   0.106   0.317   0.279
 1982 245    81  22.00  25.90  15.10 -99.000   5.046   3.094   1.934 -99.000 -99.000 -99.000   5.028   3.094   1.934   0.000   0.000  369.28  269.68  143.41  126.27    0.00    0.00   0.343   0.254   0.086   0.198   0.182   0.147   0.126   0.109   0.123   0.366   0.309
 1982 246    82  20.90  25.10  17.40 -99.000   4.828   2.942   1.870 -99.000 -99.000 -99.000   4.063   2.942   1.120   0.000   0.000  374.11  273.75  146.35  127.39    0.00    0.00   0.922   0.115   0.019   0.025   0.014   0.008   0.005   0.003   0.003   0.006   0.294
 1982 247    83  21.00  26.00  15.50 -99.000   4.822   2.917   1.889 -99.000 -99.000 -99.000   3.916   2.917   0.999   0.000   0.000  378.93  277.66  149.27  128.39    0.00    0.00   0.809   0.109   0.018   0.025   0.014   0.008   0.005   0.003   0.003   0.006   0.292
 1982 248    84  22.20  25.90  14.10 -99.000   5.028   3.018   1.993 -99.000 -99.000 -99.000   5.011   3.018   1.993   0.000   0.000  383.96  282.67  152.29  130.39    0.00    0.00   0.370   0.251   0.083   0.191   0.188   0.153   0.131   0.114   0.128   0.383   0.302
 1982 249    85  21.90  25.50  16.00 -99.000   5.078   3.025   2.037 -99.000 -99.000 -99.000   5.061   3.025   2.037   0.000   0.000  389.04  287.74  155.31  132.42    0.00    0.00   0.398   0.265   0.088   0.189   0.187   0.152   0.131   0.114   0.128   0.384   0.302
 1982 250    86  27.00  26.90  13.70 -99.000   6.222   3.672   2.529 -99.000 -99.000 -99.000   6.201   3.672   2.529   0.000   0.000  395.26  293.94  158.98  134.95    0.00    0.00   0.460   0.324   0.109   0.239   0.237   0.193   0.168   0.146   0.164   0.490   0.367
 1982 251    87  25.80  26.70  12.70 -99.000   5.875   3.434   2.421 -99.000 -99.000 -99.000   4.527   3.434   1.093   0.000   0.000  401.14  298.46  162.42  136.04    0.00    0.00   0.907   0.109   0.018   0.022   0.014   0.008   0.005   0.003   0.003   0.006   0.343
 1982 252    88  26.80  27.40  13.40 -99.000   6.178   3.576   2.581 -99.000 -99.000 -99.000   4.548   3.576   0.972   0.000   0.000  407.31  303.01  165.99  137.02    0.00    0.00   0.793   0.102   0.017   0.021   0.014   0.008   0.005   0.003   0.003   0.006   0.358
 1982 253    89  22.80  26.30  15.10 -99.000   5.251   3.006   2.228 -99.000 -99.000 -99.000   3.873   3.006   0.867   0.000   0.000  412.56  306.88  169.00  137.88    0.00    0.00   0.697   0.096   0.016   0.020   0.014   0.008   0.005   0.003   0.003   0.006   0.301
 1982 254    90  22.80  26.80  15.90 -99.000   5.313   3.004   2.293 -99.000 -99.000 -99.000   3.796   3.004   0.793   0.000   0.000  417.88  310.68  172.00  138.68    0.00    0.00   0.629   0.092   0.015   0.019   0.014   0.008   0.005   0.003   0.003   0.006   0.300
 1982 255    91  19.30  25.60  15.10 -99.000   4.405   2.454   1.937 -99.000 -99.000 -99.000   3.178   2.449   0.729   0.000   0.000  422.28  313.86  174.45  139.40    0.00    0.00   0.570   0.090   0.015   0.017   0.013   0.008   0.005   0.003   0.003   0.006   0.245
 1982 256    92  17.20  23.50  15.30 -99.000   3.834   2.105   1.717 -99.000 -99.000 -99.000   3.184   2.105   1.080   0.000   0.000  426.12  317.04  176.56  140.48    0.00    0.00   0.910   0.101   0.015   0.016   0.013   0.007   0.005   0.003   0.003   0.006   0.210
 1982 257    93  16.80  23.80  15.20 -99.000   3.826   2.070   1.744 -99.000 -99.000 -99.000   3.814   2.070   1.744   0.000   0.000  429.94  320.86  178.63  142.23    0.00    0.00   0.397   0.247   0.073   0.110   0.149   0.123   0.111   0.097   0.109   0.326   0.207
 1982 258    94  20.00  24.10  15.20 -99.000   4.583   2.440   2.128 -99.000 -99.000 -99.000   4.569   2.440   2.128   0.000   0.000  434.53  325.42  181.07  144.36    0.00    0.00   0.420   0.305   0.102   0.163   0.185   0.153   0.138   0.120   0.136   0.406   0.244
 1982 259    95  16.90  23.60  14.60 -99.000   3.813   1.995   1.806 -99.000 -99.000 -99.000   3.802   1.995   1.806   0.000   0.000  438.34  329.23  183.06  146.16    0.00    0.00   0.333   0.249   0.084   0.155   0.159   0.132   0.120   0.104   0.118   0.352   0.200
 1982 260    96  25.20  26.70  13.50 -99.000   5.848   3.005   2.825 -99.000 -99.000 -99.000   5.830   3.005   2.825   0.000   0.000  444.19  335.06  186.07  148.99    0.00    0.00   0.528   0.385   0.130   0.240   0.248   0.206   0.188   0.164   0.185   0.553   0.301
 1982 261    97  27.80  28.10  12.90 -99.000   6.547   3.293   3.235 -99.000 -99.000 -99.000   6.528   3.293   3.235   0.000   0.000  450.73  341.58  189.36  152.22    0.00    0.00   0.600   0.433   0.146   0.266   0.286   0.238   0.218   0.190   0.215   0.644   0.329
 1982 262    98  21.70  25.70  13.70 -99.000   4.996   2.452   2.530 -99.000 -99.000 -99.000   3.590   2.452   1.138   0.000   0.000  455.73  345.18  191.81  153.36    0.00    0.00   0.953   0.112   0.018   0.018   0.013   0.007   0.005   0.003   0.003   0.005   0.245
 1982 263    99  20.50  26.10  15.00 -99.000   4.806   2.301   2.492 -99.000 -99.000 -99.000   3.400   2.301   1.099   0.000   0.000  460.54  348.58  194.11  154.46    0.00    0.00   0.918   0.110   0.017   0.018   0.012   0.007   0.005   0.003   0.003   0.005   0.230
 1982 264   100  23.70  27.80  16.40 -99.000   5.726   2.662   3.049 -99.000 -99.000 -99.000   3.655   2.662   0.993   0.000   0.000  466.26  352.23  196.78  155.45    0.00    0.00   0.817   0.106   0.017   0.017   0.012   0.007   0.005   0.003   0.003   0.005   0.266
 1982 265   101  21.20  26.20  15.80 -99.000   5.004   2.242   2.750 -99.000 -99.000 -99.000   3.134   2.242   0.892   0.000   0.000  471.27  355.36  199.02  156.35    0.00    0.00   0.722   0.102   0.016   0.016   0.012   0.007   0.005   0.003   0.003   0.005   0.224
 1982 266   102  23.20  27.50  13.70 -99.000   5.472   2.359   3.099 -99.000 -99.000 -99.000   3.176   2.359   0.817   0.000   0.000  476.74  358.54  201.38  157.16    0.00    0.00   0.652   0.098   0.016   0.015   0.012   0.007   0.005   0.003   0.003   0.005   0.236
 1982 267   103  27.50  28.70  12.10 -99.000   6.501   2.689   3.796 -99.000 -99.000 -99.000   3.440   2.689   0.751   0.000   0.000  483.24  361.98  204.07  157.91    0.00    0.00   0.591   0.094   0.015   0.015   0.012   0.007   0.005   0.003   0.003   0.005   0.269
 1982 268   104  27.30  29.10  12.50 -99.000   6.510   2.573   3.923 -99.000 -99.000 -99.000   3.258   2.567   0.691   0.000   0.000  489.75  365.24  206.64  158.60    0.00    0.00   0.536   0.091   0.015   0.014   0.012   0.007   0.005   0.003   0.003   0.005   0.257
 1982 269   105  20.90  26.60  15.00 -99.000   4.942   1.852   3.080 -99.000 -99.000 -99.000   2.490   1.852   0.638   0.000   0.000  494.69  367.73  208.49  159.24    0.00    0.00   0.487   0.088   0.014   0.014   0.012   0.007   0.005   0.003   0.003   0.005   0.185
 1982 270   106  21.90  27.10  15.30 -99.000   5.214   1.953   3.249 -99.000 -99.000 -99.000   2.545   1.953   0.591   0.000   0.000  499.91  370.27  210.44  159.83    0.00    0.00   0.443   0.086   0.014   0.013   0.011   0.007   0.005   0.003   0.003   0.005   0.195
 1982 271   107  19.40  25.90  15.20 -99.000   4.544   1.702   2.832 -99.000 -99.000 -99.000   2.251   1.702   0.549   0.000   0.000  504.45  372.52  212.14  160.38    0.00    0.00   0.403   0.085   0.014   0.013   0.011   0.006   0.005   0.003   0.003   0.005   0.170
 1982 272   108  25.50  27.70  13.50 -99.000   6.012   2.252   3.747 -99.000 -99.000 -99.000   2.762   2.252   0.510   0.000   0.000  510.46  375.29  214.39  160.89    0.00    0.00   0.366   0.084   0.014   0.013   0.011   0.006   0.005   0.003   0.003   0.005   0.225

*DSSAT Cropping System Model Ver. 4.7.5.008 -release  JAN 07, 2021 20:33:24

*RUN   3        : ERiMA DCC1                MZCER047 ETMZmelk    1
 MODEL          : MZCER047 - Maize
 EXPERIMENT     : ETMZmelk SN MELKSSAL
 DATA PATH      : C:\IRI\Python_Dash\ET_DSS_hist\TEST\
 TREATMENT  1   : ERiMA DCC1                MZCER047
  
!                                                                                                                                                                                        Soil evaporation (mm/d) by soil depth (cm):
!                                                                                                                                                                                        0-5    5-15   15-20   20-35   35-50   50-65   65-81   81-97  97-118 118-200
@YEAR DOY   DAS   SRAA  TMAXA  TMINA    REFA    EOAA    EOPA    EOSA    KCAA    KCBA    KEAA    ETAA    EPAA    ESAA    EFAA    EMAA    EOAC    ETAC    EPAC    ESAC    EFAC    EMAC    ES1D    ES2D    ES3D    ES4D    ES5D    ES6D    ES7D    ES8D    ES9D   ES10D   TRWUD
 1983 165     1  24.60  32.20  15.60 -99.000   6.695   0.000   6.695 -99.000 -99.000 -99.000   1.007   0.000   1.007   0.000   0.000    6.70    1.01    0.00    1.01    0.00    0.00   0.824   0.105   0.017   0.022   0.015   0.008   0.005   0.003   0.003   0.006   0.000
 1983 166     2  22.50  31.80  15.60 -99.000   6.072   0.000   6.072 -99.000 -99.000 -99.000   0.932   0.000   0.932   0.000   0.000   12.77    1.94    0.00    1.94    0.00    0.00   0.749   0.104   0.017   0.022   0.015   0.008   0.005   0.003   0.003   0.006   0.000
 1983 167     3  21.60  31.20  15.60 -99.000   5.769   0.000   5.769 -99.000 -99.000 -99.000   0.863   0.000   0.863   0.000   0.000   18.54    2.80    0.00    2.80    0.00    0.00   0.681   0.104   0.017   0.021   0.015   0.008   0.005   0.003   0.003   0.006   0.000
 1983 168     4  16.80  25.10  17.00 -99.000   4.215   0.000   4.215 -99.000 -99.000 -99.000   0.909   0.000   0.909   0.000   0.000   22.75    3.71    0.00    3.71    0.00    0.00   0.728   0.103   0.017   0.021   0.015   0.008   0.005   0.003   0.003   0.006   0.000
 1983 169     5  20.40  28.10  16.10 -99.000   5.307   0.000   5.307 -99.000 -99.000 -99.000   5.307   0.000   5.307   0.000   0.000   28.06    9.02    0.00    9.02    0.00    0.00   0.957   0.651   0.209   0.467   0.522   0.423   0.360   0.313   0.353   1.052   0.000
 1983 170     6  17.70  25.00  17.10 -99.000   4.547   0.000   4.547 -99.000 -99.000 -99.000   4.547   0.000   4.547   0.000   0.000   32.61   13.57    0.00   13.57    0.00    0.00   0.847   0.582   0.173   0.391   0.439   0.356   0.304   0.265   0.298   0.891   0.000
 1983 171     7  19.60  27.20  17.00 -99.000   5.123   0.000   5.123 -99.000 -99.000 -99.000   1.112   0.000   1.112   0.000   0.000   37.73   14.68    0.00   14.68    0.00    0.00   0.922   0.114   0.016   0.021   0.014   0.008   0.005   0.003   0.003   0.006   0.000
 1983 172     8  22.40  29.20  15.00 -99.000   5.873   0.000   5.873 -99.000 -99.000 -99.000   1.028   0.000   1.028   0.000   0.000   43.60   15.71    0.00   15.71    0.00    0.00   0.839   0.113   0.016   0.021   0.014   0.008   0.005   0.003   0.003   0.006   0.000
 1983 173     9  22.80  30.00  13.80 -99.000   5.951   0.015   5.936 -99.000 -99.000 -99.000   0.966   0.015   0.951   0.000   0.000   49.55   16.67    0.01   16.66    0.00    0.00   0.762   0.113   0.016   0.021   0.014   0.008   0.005   0.003   0.003   0.006   0.001
 1983 174    10  22.90  30.50  14.80 -99.000   6.032   0.030   6.002 -99.000 -99.000 -99.000   0.910   0.030   0.880   0.000   0.000   55.59   17.58    0.04   17.54    0.00    0.00   0.693   0.112   0.016   0.021   0.014   0.008   0.005   0.003   0.003   0.006   0.003
 1983 175    11  22.50  30.30  16.20 -99.000   5.952   0.046   5.906 -99.000 -99.000 -99.000   0.863   0.046   0.816   0.000   0.000   61.54   18.44    0.09   18.35    0.00    0.00   0.629   0.111   0.016   0.021   0.014   0.008   0.005   0.003   0.003   0.006   0.005
 1983 176    12  18.00  25.20  16.30 -99.000   4.478   0.050   4.428 -99.000 -99.000 -99.000   0.807   0.049   0.758   0.000   0.000   66.02   19.25    0.14   19.11    0.00    0.00   0.572   0.110   0.016   0.021   0.014   0.008   0.005   0.003   0.003   0.006   0.005
 1983 177    13  21.60  29.00  14.70 -99.000   5.525   0.108   5.416 -99.000 -99.000 -99.000   0.813   0.108   0.705   0.000   0.000   71.54   20.06    0.25   19.81    0.00    0.00   0.520   0.109   0.016   0.021   0.014   0.008   0.005   0.003   0.003   0.006   0.011
 1983 178    14  20.80  28.30  14.70 -99.000   5.256   0.161   5.094 -99.000 -99.000 -99.000   1.240   0.161   1.079   0.000   0.000   76.80   21.30    0.41   20.89    0.00    0.00   0.885   0.117   0.017   0.021   0.014   0.008   0.005   0.003   0.003   0.006   0.016
 1983 179    15  15.90  23.50  16.90 -99.000   4.006   0.178   3.827 -99.000 -99.000 -99.000   4.005   0.178   3.827   0.000   0.000   80.80   25.31    0.59   24.72    0.00    0.00   0.740   0.511   0.164   0.323   0.357   0.291   0.248   0.217   0.244   0.731   0.018
 1983 180    16  19.00  26.60  16.00 -99.000   4.864   0.275   4.588 -99.000 -99.000 -99.000   4.863   0.275   4.588   0.000   0.000   85.67   30.17    0.86   29.31    0.00    0.00   0.828   0.611   0.206   0.400   0.433   0.353   0.302   0.264   0.298   0.892   0.027
 1983 181    17  20.60  26.70  15.70 -99.000   5.226   0.382   4.842 -99.000 -99.000 -99.000   5.224   0.382   4.842   0.000   0.000   90.89   35.40    1.24   34.15    0.00    0.00   0.956   0.670   0.229   0.422   0.435   0.356   0.305   0.266   0.301   0.902   0.038
 1983 182    18  21.30  30.80  15.60 -99.000   5.734   0.523   5.209 -99.000 -99.000 -99.000   5.732   0.523   5.209   0.000   0.000   96.63   41.13    1.77   39.36    0.00    0.00   0.994   0.715   0.245   0.508   0.465   0.380   0.326   0.285   0.323   0.968   0.052
 1983 183    19  23.60  31.80  14.10 -99.000   6.248   0.713   5.531 -99.000 -99.000 -99.000   6.244   0.713   5.531   0.000   0.000  102.88   47.37    2.48   44.89    0.00    0.00   0.974   0.745   0.254   0.585   0.502   0.411   0.353   0.309   0.349   1.050   0.071
 1983 184    20  22.90  29.20  14.50 -99.000   5.850   0.814   5.032 -99.000 -99.000 -99.000   1.857   0.814   1.043   0.000   0.000  108.73   49.23    3.29   45.93    0.00    0.00   0.845   0.116   0.020   0.026   0.013   0.008   0.005   0.003   0.003   0.005   0.081
 1983 185    21  21.90  29.50  15.10 -99.000   5.591   0.919   4.667 -99.000 -99.000 -99.000   1.860   0.919   0.941   0.000   0.000  114.32   51.09    4.21   46.87    0.00    0.00   0.745   0.113   0.019   0.026   0.013   0.008   0.005   0.003   0.003   0.005   0.092
 1983 186    22  23.20  30.70  14.90 -99.000   5.948   1.144   4.798 -99.000 -99.000 -99.000   2.005   1.144   0.861   0.000   0.000  120.26   53.09    5.36   47.74    0.00    0.00   0.670   0.109   0.019   0.026   0.013   0.008   0.005   0.003   0.003   0.005   0.114
 1983 187    23  22.30  29.60  16.70 -99.000   5.681   1.271   4.404 -99.000 -99.000 -99.000   2.063   1.271   0.792   0.000   0.000  125.95   55.16    6.63   48.53    0.00    0.00   0.607   0.104   0.018   0.026   0.013   0.008   0.005   0.003   0.003   0.005   0.127
 1983 188    24  21.60  30.10  15.10 -99.000   5.428   1.394   4.026 -99.000 -99.000 -99.000   2.389   1.394   0.995   0.000   0.000  131.37   57.54    8.02   49.52    0.00    0.00   0.811   0.104   0.018   0.025   0.013   0.008   0.005   0.003   0.003   0.005   0.139
 1983 189    25  22.70  27.90  15.80 -99.000   5.662   1.647   4.006 -99.000 -99.000 -99.000   5.653   1.647   4.006   0.000   0.000  137.03   63.20    9.67   53.53    0.00    0.00   0.743   0.477   0.158   0.420   0.370   0.304   0.262   0.230   0.260   0.783   0.165
 1983 190    26  23.20  30.20  15.00 -99.000   5.843   1.894   3.939 -99.000 -99.000 -99.000   2.938   1.894   1.044   0.000   0.000  142.88   66.14   11.56   54.57    0.00    0.00   0.868   0.098   0.016   0.025   0.013   0.007   0.005   0.003   0.003   0.005   0.189
 1983 191    27  22.00  30.60  15.50 -99.000   5.526   1.995   3.521 -99.000 -99.000 -99.000   5.515   1.995   3.521   0.000   0.000  148.40   71.65   13.56   58.09    0.00    0.00   0.681   0.429   0.129   0.356   0.322   0.265   0.228   0.200   0.227   0.684   0.199
 1983 192    28  21.40  27.30  16.20 -99.000   5.256   2.100   3.144 -99.000 -99.000 -99.000   5.244   2.100   3.144   0.000   0.000  153.66   76.89   15.66   61.24    0.00    0.00   0.627   0.415   0.111   0.302   0.281   0.232   0.200   0.176   0.199   0.601   0.210
 1983 193    29  22.70  29.20  16.50 -99.000   5.628   2.446   3.169 -99.000 -99.000 -99.000   3.587   2.446   1.141   0.000   0.000  159.29   80.48   18.10   62.38    0.00    0.00   0.953   0.113   0.015   0.023   0.013   0.007   0.005   0.003   0.003   0.005   0.245
 1983 194    30  20.80  26.30  17.00 -99.000   4.954   2.344   2.597 -99.000 -99.000 -99.000   3.333   2.344   0.989   0.000   0.000  164.24   83.81   20.45   63.37    0.00    0.00   0.810   0.105   0.015   0.022   0.013   0.007   0.005   0.003   0.003   0.005   0.234
 1983 195    31  20.00  25.50  16.60 -99.000   4.663   2.367   2.282 -99.000 -99.000 -99.000   3.225   2.367   0.857   0.000   0.000  168.90   87.04   22.82   64.22    0.00    0.00   0.687   0.097   0.015   0.022   0.013   0.007   0.005   0.003   0.003   0.005   0.237
 1983 196    32  21.80  27.10  15.50 -99.000   5.100   2.748   2.337 -99.000 -99.000 -99.000   3.757   2.748   1.009   0.000   0.000  174.00   90.80   25.56   65.23    0.00    0.00   0.843   0.095   0.015   0.021   0.013   0.007   0.005   0.003   0.003   0.005   0.275
 1983 197    33  18.00  27.50  15.80 -99.000   4.261   2.412   1.836 -99.000 -99.000 -99.000   4.248   2.412   1.836   0.000   0.000  178.27   95.04   27.97   67.07    0.00    0.00   0.367   0.210   0.063   0.159   0.172   0.142   0.123   0.108   0.122   0.370   0.241
 1983 198    34  18.50  24.60  15.90 -99.000   4.216   2.449   1.753 -99.000 -99.000 -99.000   3.558   2.449   1.110   0.000   0.000  182.48   98.60   30.42   68.18    0.00    0.00   0.944   0.096   0.014   0.019   0.013   0.007   0.005   0.003   0.003   0.005   0.245
 1983 199    35  15.60  27.60  14.90 -99.000   3.639   2.165   1.462 -99.000 -99.000 -99.000   3.246   2.165   1.081   0.000   0.000  186.12  101.85   32.59   69.26    0.00    0.00   0.917   0.096   0.014   0.019   0.013   0.007   0.005   0.003   0.003   0.005   0.217
 1983 200    36  22.30  25.00  15.70 -99.000   5.072   3.073   1.982 -99.000 -99.000 -99.000   4.143   3.073   1.070   0.000   0.000  191.19  105.99   35.66   70.33    0.00    0.00   0.908   0.095   0.014   0.018   0.013   0.007   0.005   0.003   0.003   0.005   0.307
 1983 201    37  19.70  26.00  14.80 -99.000   4.483   2.781   1.686 -99.000 -99.000 -99.000   3.743   2.781   0.962   0.000   0.000  195.68  109.73   38.44   71.29    0.00    0.00   0.805   0.090   0.013   0.017   0.013   0.007   0.005   0.003   0.003   0.005   0.278
 1983 202    38  20.00  24.30  16.40 -99.000   4.503   2.848   1.639 -99.000 -99.000 -99.000   4.487   2.848   1.639   0.000   0.000  200.18  114.22   41.29   72.93    0.00    0.00   0.332   0.196   0.054   0.117   0.155   0.129   0.111   0.098   0.111   0.336   0.285
 1983 203    39  17.80  25.00  15.70 -99.000   4.052   2.609   1.428 -99.000 -99.000 -99.000   4.037   2.609   1.428   0.000   0.000  204.23  118.26   43.90   74.36    0.00    0.00   0.343   0.189   0.048   0.087   0.126   0.104   0.090   0.079   0.090   0.272   0.261
 1983 204    40  18.80  24.40  15.60 -99.000   4.237   2.769   1.452 -99.000 -99.000 -99.000   4.221   2.769   1.452   0.000   0.000  208.47  122.48   46.67   75.81    0.00    0.00   0.339   0.206   0.063   0.089   0.124   0.103   0.089   0.079   0.089   0.270   0.277
 1983 205    41  18.20  26.50  15.00 -99.000   4.179   2.772   1.391 -99.000 -99.000 -99.000   4.163   2.772   1.391   0.000   0.000  212.65  126.64   49.44   77.20    0.00    0.00   0.281   0.198   0.067   0.099   0.123   0.102   0.088   0.078   0.088   0.267   0.277
 1983 206    42  19.00  24.30  17.40 -99.000   4.306   2.896   1.394 -99.000 -99.000 -99.000   4.290   2.896   1.394   0.000   0.000  216.95  130.93   52.34   78.60    0.00    0.00   0.288   0.208   0.071   0.120   0.116   0.096   0.083   0.074   0.084   0.253   0.290
 1983 207    43  21.10  26.70  16.70 -99.000   4.906   3.345   1.543 -99.000 -99.000 -99.000   4.888   3.345   1.543   0.000   0.000  221.86  135.82   55.68   80.14    0.00    0.00   0.329   0.242   0.082   0.156   0.128   0.100   0.085   0.075   0.086   0.259   0.334
 1983 208    44  17.70  24.30  16.00 -99.000   3.970   2.746   1.208 -99.000 -99.000 -99.000   3.954   2.746   1.208   0.000   0.000  225.83  139.78   58.43   81.35    0.00    0.00   0.252   0.185   0.063   0.131   0.109   0.081   0.066   0.058   0.066   0.199   0.275
 1983 209    45  18.90  24.60  16.50 -99.000   4.267   2.987   1.263 -99.000 -99.000 -99.000   4.250   2.987   1.263   0.000   0.000  230.10  144.02   61.41   82.61    0.00    0.00   0.236   0.176   0.060   0.135   0.119   0.094   0.077   0.067   0.075   0.222   0.299
 1983 210    46  19.90  25.40  16.50 -99.000   4.510   3.197   1.296 -99.000 -99.000 -99.000   4.493   3.197   1.296   0.000   0.000  234.61  148.52   64.61   83.91    0.00    0.00   0.226   0.171   0.058   0.137   0.124   0.099   0.084   0.073   0.083   0.238   0.320
 1983 211    47  20.20  25.60  16.10 -99.000   4.561   3.274   1.269 -99.000 -99.000 -99.000   4.543   3.274   1.269   0.000   0.000  239.17  153.06   67.89   85.17    0.00    0.00   0.210   0.160   0.056   0.136   0.124   0.100   0.085   0.074   0.083   0.242   0.327
 1983 212    48  14.80  26.20  15.80 -99.000   3.349   2.434   0.901 -99.000 -99.000 -99.000   3.335   2.434   0.901   0.000   0.000  242.52  156.40   70.32   86.08    0.00    0.00   0.140   0.108   0.038   0.097   0.091   0.073   0.062   0.054   0.061   0.177   0.243
 1983 213    49  19.30  26.80  15.00 -99.000   4.379   3.104   1.258 -99.000 -99.000 -99.000   4.362   3.104   1.258   0.000   0.000  246.90  160.76   73.42   87.33    0.00    0.00   0.195   0.143   0.052   0.135   0.128   0.103   0.088   0.077   0.086   0.250   0.310
 1983 214    50  24.10  25.90  15.60 -99.000   5.440   3.849   1.569 -99.000 -99.000 -99.000   4.808   3.849   0.959   0.000   0.000  252.34  165.56   77.27   88.29    0.00    0.00   0.787   0.092   0.016   0.025   0.015   0.008   0.005   0.003   0.003   0.005   0.385
 1983 215    51  21.90  25.90  15.50 -99.000   4.927   3.480   1.427 -99.000 -99.000 -99.000   4.311   3.480   0.831   0.000   0.000  257.26  169.88   80.75   89.12    0.00    0.00   0.666   0.087   0.015   0.023   0.015   0.008   0.005   0.003   0.003   0.005   0.348
 1983 216    52  20.00  26.90  15.90 -99.000   4.570   3.223   1.329 -99.000 -99.000 -99.000   4.125   3.223   0.902   0.000   0.000  261.83  174.00   83.98   90.03    0.00    0.00   0.743   0.084   0.014   0.021   0.014   0.008   0.005   0.003   0.003   0.005   0.322
 1983 217    53  23.10  26.20  17.30 -99.000   5.303   3.733   1.549 -99.000 -99.000 -99.000   4.735   3.733   1.002   0.000   0.000  267.14  178.74   87.71   91.03    0.00    0.00   0.848   0.081   0.014   0.020   0.014   0.008   0.005   0.003   0.003   0.005   0.373
 1983 218    54  21.70  25.30  16.70 -99.000   4.908   3.449   1.440 -99.000 -99.000 -99.000   4.369   3.449   0.921   0.000   0.000  272.04  183.10   91.16   91.95    0.00    0.00   0.770   0.080   0.014   0.018   0.014   0.008   0.005   0.003   0.003   0.005   0.345
 1983 219    55  21.70  24.20  16.10 -99.000   4.809   3.372   1.417 -99.000 -99.000 -99.000   4.311   3.372   0.939   0.000   0.000  276.85  187.42   94.53   92.89    0.00    0.00   0.791   0.079   0.013   0.016   0.014   0.008   0.005   0.003   0.003   0.005   0.337
 1983 220    56  15.50  26.10  16.40 -99.000   3.540   2.478   1.047 -99.000 -99.000 -99.000   3.526   2.478   1.047   0.000   0.000  280.39  190.94   97.01   93.93    0.00    0.00   0.227   0.113   0.033   0.064   0.105   0.086   0.073   0.064   0.072   0.210   0.248
 1983 221    57  22.60  26.80  17.10 -99.000   5.251   3.671   1.561 -99.000 -99.000 -99.000   5.232   3.671   1.561   0.000   0.000  285.64  196.17  100.68   95.49    0.00    0.00   0.313   0.198   0.049   0.094   0.155   0.128   0.109   0.095   0.107   0.312   0.367
 1983 222    58  20.00  24.00  16.50 -99.000   4.458   3.109   1.331 -99.000 -99.000 -99.000   4.441   3.109   1.331   0.000   0.000  290.10  200.61  103.79   96.83    0.00    0.00   0.278   0.175   0.049   0.077   0.128   0.106   0.091   0.079   0.089   0.259   0.311
 1983 223    59  15.10  22.30  16.00 -99.000   3.300   2.297   0.989 -99.000 -99.000 -99.000   3.286   2.297   0.989   0.000   0.000  293.40  203.90  106.08   97.81    0.00    0.00   0.218   0.144   0.047   0.058   0.089   0.073   0.063   0.055   0.062   0.180   0.230
 1983 224    60  14.00  24.50  16.10 -99.000   3.149   2.189   0.947 -99.000 -99.000 -99.000   3.137   2.189   0.947   0.000   0.000  296.55  207.04  108.27   98.76    0.00    0.00   0.185   0.134   0.046   0.070   0.087   0.072   0.062   0.054   0.061   0.177   0.219
 1983 225    61  14.20  24.30  16.20 -99.000   3.178   2.205   0.960 -99.000 -99.000 -99.000   3.165   2.205   0.960   0.000   0.000  299.73  210.20  110.48   99.72    0.00    0.00   0.175   0.131   0.045   0.081   0.090   0.074   0.064   0.056   0.063   0.183   0.221
 1983 226    62  11.30  23.70  16.20 -99.000   2.507   1.737   0.760 -99.000 -99.000 -99.000   2.497   1.737   0.760   0.000   0.000  302.24  212.70  112.22  100.48    0.00    0.00   0.626   0.080   0.013   0.014   0.009   0.005   0.003   0.002   0.002   0.004   0.174
 1983 227    63   6.90  24.10  15.30 -99.000   1.527   1.046   0.475 -99.000 -99.000 -99.000   1.521   1.046   0.475   0.000   0.000  303.76  214.22  113.26  100.96    0.00    0.00   0.091   0.063   0.021   0.039   0.044   0.036   0.031   0.027   0.031   0.090   0.105
 1983 228    64  14.50  24.10  16.10 -99.000   3.252   2.225   1.014 -99.000 -99.000 -99.000   3.239   2.225   1.014   0.000   0.000  307.01  217.46  115.49  101.97    0.00    0.00   0.198   0.136   0.046   0.087   0.092   0.077   0.066   0.058   0.065   0.189   0.222
 1983 229    65  15.20  24.20  16.00 -99.000   3.398   2.321   1.063 -99.000 -99.000 -99.000   3.384   2.321   1.063   0.000   0.000  310.41  220.84  117.81  103.03    0.00    0.00   0.215   0.154   0.052   0.098   0.092   0.076   0.066   0.057   0.065   0.188   0.232
 1983 230    66  16.10  23.50  16.10 -99.000   3.588   2.446   1.127 -99.000 -99.000 -99.000   3.573   2.446   1.127   0.000   0.000  314.00  224.42  120.25  104.16    0.00    0.00   0.238   0.169   0.059   0.112   0.096   0.077   0.065   0.057   0.065   0.188   0.245
 1983 231    67  19.50  23.40  15.80 -99.000   4.330   2.947   1.366 -99.000 -99.000 -99.000   4.313   2.947   1.366   0.000   0.000  318.33  228.73  123.20  105.53    0.00    0.00   0.256   0.187   0.065   0.142   0.126   0.101   0.085   0.074   0.084   0.245   0.295
 1983 232    68  22.30  24.50  15.30 -99.000   4.978   3.380   1.578 -99.000 -99.000 -99.000   4.958   3.380   1.578   0.000   0.000  323.31  233.69  126.58  107.11    0.00    0.00   0.313   0.209   0.074   0.160   0.144   0.116   0.099   0.085   0.096   0.282   0.338
 1983 233    69  14.20  25.60  15.70 -99.000   3.236   2.192   1.031 -99.000 -99.000 -99.000   3.223   2.192   1.031   0.000   0.000  326.54  236.91  128.77  108.14    0.00    0.00   0.215   0.134   0.048   0.103   0.093   0.075   0.064   0.055   0.062   0.182   0.219
[...]
 2015 232    68  15.30  23.40  13.30 -99.000   3.228   2.733   0.478 -99.000 -99.000 -99.000   3.211   2.733   0.478   0.000   0.000  258.00  252.61  108.33  144.28    0.00    0.00   0.100   0.066   0.023   0.048   0.041   0.032   0.029   0.025   0.029   0.085   0.273
 2015 233    69  11.80  24.60  13.80 -99.000   2.539   2.147   0.380 -99.000 -99.000 -99.000   2.527   2.147   0.380   0.000   0.000  260.54  255.14  110.48  144.66    0.00    0.00   0.080   0.054   0.020   0.038   0.033   0.025   0.022   0.020   0.022   0.066   0.215
 2015 234    70  11.80  22.30  14.20 -99.000   2.478   2.089   0.376 -99.000 -99.000 -99.000   2.465   2.089   0.376   0.000   0.000  263.02  257.60  112.57  145.03    0.00    0.00   0.079   0.053   0.020   0.038   0.033   0.026   0.022   0.019   0.022   0.064   0.209
 2015 235    71  16.00  24.30  14.30 -99.000   3.447   2.901   0.530 -99.000 -99.000 -99.000   3.430   2.901   0.530   0.000   0.000  266.46  261.03  115.47  145.56    0.00    0.00   0.110   0.074   0.027   0.054   0.047   0.037   0.032   0.027   0.030   0.090   0.290
 2015 236    72   7.00  21.40  14.70 -99.000   1.460   1.227   0.226 -99.000 -99.000 -99.000   1.452   1.227   0.226   0.000   0.000  267.92  262.48  116.70  145.79    0.00    0.00   0.042   0.030   0.011   0.023   0.021   0.017   0.014   0.012   0.014   0.041   0.123
 2015 237    73  11.80  23.60  14.80 -99.000   2.529   2.116   0.400 -99.000 -99.000 -99.000   2.516   2.116   0.400   0.000   0.000  270.45  265.00  118.81  146.19    0.00    0.00   0.071   0.053   0.018   0.042   0.037   0.030   0.026   0.022   0.025   0.075   0.212
 2015 238    74  10.20  24.20  15.50 -99.000   2.213   1.848   0.355 -99.000 -99.000 -99.000   2.202   1.848   0.355   0.000   0.000  272.66  267.20  120.66  146.54    0.00    0.00   0.067   0.046   0.016   0.036   0.033   0.026   0.023   0.020   0.022   0.066   0.185
 2015 239    75  17.20  23.70  15.00 -99.000   3.704   3.074   0.612 -99.000 -99.000 -99.000   3.686   3.074   0.612   0.000   0.000  276.37  270.89  123.73  147.16    0.00    0.00   0.129   0.080   0.028   0.061   0.054   0.044   0.038   0.033   0.037   0.110   0.307
 2015 240    76  18.10  23.80  14.00 -99.000   3.877   3.198   0.660 -99.000 -99.000 -99.000   3.858   3.198   0.660   0.000   0.000  280.25  274.75  126.93  147.82    0.00    0.00   0.125   0.086   0.030   0.068   0.061   0.049   0.042   0.037   0.041   0.123   0.320
 2015 241    77  12.90  23.10  11.80 -99.000   2.687   2.202   0.471 -99.000 -99.000 -99.000   2.673   2.202   0.471   0.000   0.000  282.93  277.42  129.13  148.29    0.00    0.00   0.083   0.061   0.021   0.049   0.044   0.035   0.031   0.027   0.030   0.090   0.220
 2015 242    78   9.10  23.30  13.70 -99.000   1.930   1.573   0.348 -99.000 -99.000 -99.000   1.921   1.573   0.348   0.000   0.000  284.86  279.34  130.71  148.63    0.00    0.00   0.066   0.045   0.015   0.035   0.031   0.026   0.022   0.019   0.022   0.065   0.157
 2015 243    79  17.20  21.80  15.10 -99.000   3.634   2.944   0.672 -99.000 -99.000 -99.000   3.616   2.944   0.672   0.000   0.000  288.50  282.96  133.65  149.31    0.00    0.00   0.142   0.088   0.030   0.067   0.059   0.047   0.041   0.036   0.041   0.121   0.294
 2015 244    80  20.20  27.30  14.90 -99.000   4.561   3.675   0.866 -99.000 -99.000 -99.000   4.540   3.675   0.866   0.000   0.000  293.06  287.50  137.33  150.17    0.00    0.00   0.187   0.114   0.040   0.086   0.076   0.059   0.052   0.046   0.051   0.154   0.367
 2015 245    81  24.50  26.60  14.70 -99.000   5.482   4.392   1.066 -99.000 -99.000 -99.000   5.457   4.392   1.066   0.000   0.000  298.54  292.96  141.72  151.24    0.00    0.00   0.229   0.141   0.051   0.106   0.094   0.073   0.064   0.056   0.063   0.189   0.439
 2015 246    82  19.00  28.30  15.40 -99.000   4.363   3.477   0.867 -99.000 -99.000 -99.000   4.344   3.477   0.867   0.000   0.000  302.90  297.30  145.19  152.10    0.00    0.00   0.185   0.114   0.042   0.086   0.077   0.060   0.052   0.046   0.051   0.154   0.348
 2015 247    83  21.40  27.40  15.10 -99.000   4.856   3.848   0.986 -99.000 -99.000 -99.000   4.835   3.848   0.986   0.000   0.000  307.76  302.13  149.04  153.09    0.00    0.00   0.211   0.130   0.047   0.098   0.087   0.069   0.059   0.052   0.058   0.174   0.385
 2015 248    84  16.40  27.40  14.40 -99.000   3.704   2.920   0.768 -99.000 -99.000 -99.000   3.688   2.920   0.768   0.000   0.000  311.46  305.82  151.96  153.86    0.00    0.00   0.144   0.100   0.035   0.079   0.071   0.057   0.049   0.042   0.048   0.143   0.292
 2015 249    85  15.70  26.20  15.70 -99.000   3.526   2.765   0.745 -99.000 -99.000 -99.000   3.510   2.765   0.745   0.000   0.000  314.99  309.33  154.73  154.60    0.00    0.00   0.132   0.097   0.033   0.077   0.070   0.056   0.048   0.042   0.047   0.142   0.277
 2015 250    86  24.00  27.10  14.00 -99.000   5.373   4.194   1.155 -99.000 -99.000 -99.000   5.349   4.194   1.155   0.000   0.000  320.36  314.68  158.92  155.76    0.00    0.00   0.226   0.150   0.051   0.117   0.104   0.084   0.073   0.064   0.072   0.215   0.419
 2015 251    87  22.00  27.20  14.50 -99.000   4.969   3.862   1.086 -99.000 -99.000 -99.000   4.947   3.862   1.086   0.000   0.000  325.33  319.63  162.78  156.84    0.00    0.00   0.233   0.144   0.050   0.107   0.094   0.075   0.066   0.058   0.065   0.194   0.386
 2015 252    88  18.90  26.10  15.00 -99.000   4.235   3.278   0.938 -99.000 -99.000 -99.000   4.216   3.278   0.938   0.000   0.000  329.57  323.84  166.06  157.78    0.00    0.00   0.177   0.124   0.043   0.096   0.086   0.068   0.060   0.052   0.058   0.175   0.328
 2015 253    89  17.50  25.70  15.60 -99.000   3.912   3.017   0.878 -99.000 -99.000 -99.000   3.895   3.017   0.878   0.000   0.000  333.48  327.74  169.08  158.66    0.00    0.00   0.177   0.115   0.040   0.088   0.079   0.064   0.055   0.048   0.054   0.160   0.302
 2015 254    90  21.40  26.80  14.00 -99.000   4.803   3.689   1.092 -99.000 -99.000 -99.000   4.781   3.689   1.092   0.000   0.000  338.28  332.52  172.77  159.75    0.00    0.00   0.236   0.145   0.051   0.107   0.096   0.076   0.066   0.057   0.064   0.193   0.369
 2015 255    91  17.30  25.00  13.60 -99.000   3.789   2.899   0.873 -99.000 -99.000 -99.000   3.772   2.899   0.873   0.000   0.000  342.07  336.29  175.67  160.63    0.00    0.00   0.184   0.122   0.044   0.087   0.076   0.061   0.052   0.045   0.051   0.151   0.290
 2015 256    92  21.10  24.80  13.60 -99.000   4.613   3.516   1.077 -99.000 -99.000 -99.000   4.592   3.516   1.077   0.000   0.000  346.68  340.88  179.18  161.70    0.00    0.00   0.225   0.152   0.056   0.109   0.095   0.075   0.064   0.055   0.062   0.183   0.352
 2015 257    93  21.40  26.50  15.10 -99.000   4.835   3.671   1.143 -99.000 -99.000 -99.000   4.814   3.671   1.143   0.000   0.000  351.52  345.70  182.85  162.85    0.00    0.00   0.238   0.157   0.059   0.116   0.102   0.081   0.069   0.059   0.066   0.195   0.367
 2015 258    94  15.90  27.00  16.30 -99.000   3.649   2.761   0.873 -99.000 -99.000 -99.000   3.634   2.761   0.873   0.000   0.000  355.17  349.33  185.61  163.72    0.00    0.00   0.163   0.115   0.041   0.090   0.081   0.065   0.055   0.048   0.054   0.160   0.276
 2015 259    95  14.30  26.90  16.70 -99.000   3.280   2.472   0.794 -99.000 -99.000 -99.000   3.267   2.472   0.794   0.000   0.000  358.45  352.60  188.09  164.51    0.00    0.00   0.140   0.104   0.036   0.082   0.075   0.060   0.052   0.045   0.050   0.150   0.247
 2015 260    96  16.20  26.40  15.20 -99.000   3.649   2.740   0.894 -99.000 -99.000 -99.000   3.634   2.740   0.894   0.000   0.000  362.10  356.23  190.83  165.41    0.00    0.00   0.170   0.116   0.040   0.091   0.082   0.066   0.057   0.050   0.056   0.166   0.274
 2015 261    97  24.10  25.10  14.30 -99.000   5.326   3.983   1.320 -99.000 -99.000 -99.000   5.303   3.983   1.320   0.000   0.000  367.42  361.54  194.81  166.73    0.00    0.00   0.245   0.171   0.058   0.135   0.123   0.099   0.085   0.074   0.083   0.248   0.398
 2015 262    98  18.00  27.90  15.80 -99.000   4.151   3.094   1.041 -99.000 -99.000 -99.000   4.134   3.094   1.041   0.000   0.000  371.57  365.67  197.90  167.77    0.00    0.00   0.207   0.137   0.047   0.104   0.094   0.075   0.065   0.057   0.064   0.190   0.309
 2015 263    99  20.40  26.90  14.70 -99.000   4.631   3.438   1.174 -99.000 -99.000 -99.000   4.611   3.438   1.174   0.000   0.000  376.20  370.28  201.34  168.94    0.00    0.00   0.252   0.160   0.056   0.115   0.103   0.082   0.070   0.062   0.069   0.206   0.344
 2015 264   100  16.90  27.40  14.30 -99.000   3.848   2.846   0.986 -99.000 -99.000 -99.000   3.832   2.846   0.986   0.000   0.000  380.05  374.11  204.19  169.93    0.00    0.00   0.186   0.130   0.045   0.101   0.091   0.073   0.062   0.054   0.061   0.182   0.285
 2015 265   101  17.20  26.80  13.80 -99.000   3.864   2.847   1.000 -99.000 -99.000 -99.000   3.847   2.847   1.000   0.000   0.000  383.92  377.96  207.03  170.93    0.00    0.00   0.177   0.131   0.045   0.104   0.094   0.076   0.065   0.057   0.064   0.190   0.285
 2015 266   102  23.00  27.70  14.70 -99.000   5.254   3.858   1.375 -99.000 -99.000 -99.000   4.999   3.858   1.142   0.000   0.000  389.17  382.96  210.89  172.07    0.00    0.00   0.939   0.118   0.020   0.026   0.014   0.008   0.005   0.003   0.003   0.006   0.386
 2015 267   103  27.60  26.60  13.80 -99.000   6.172   4.514   1.632 -99.000 -99.000 -99.000   6.146   4.514   1.632   0.000   0.000  395.34  389.11  215.40  173.70    0.00    0.00   0.310   0.213   0.072   0.163   0.149   0.120   0.105   0.091   0.103   0.307   0.451
 2015 268   104  17.20  26.00  13.70 -99.000   3.841   2.798   1.026 -99.000 -99.000 -99.000   3.825   2.798   1.026   0.000   0.000  399.18  392.93  218.20  174.73    0.00    0.00   0.223   0.136   0.047   0.099   0.088   0.070   0.063   0.055   0.062   0.184   0.280
 2015 269   105  14.20  24.10  13.30 -99.000   3.091   2.243   0.834 -99.000 -99.000 -99.000   3.078   2.243   0.834   0.000   0.000  402.27  396.01  220.45  175.56    0.00    0.00   0.159   0.110   0.038   0.085   0.076   0.060   0.053   0.046   0.052   0.155   0.224
 2015 270   106  15.30  26.00  13.40 -99.000   3.402   2.460   0.928 -99.000 -99.000 -99.000   3.388   2.460   0.928   0.000   0.000  405.68  399.40  222.91  176.49    0.00    0.00   0.166   0.122   0.041   0.096   0.087   0.068   0.060   0.052   0.059   0.176   0.246
 2015 271   107  18.50  25.70  13.90 -99.000   4.112   2.961   1.133 -99.000 -99.000 -99.000   4.094   2.961   1.133   0.000   0.000  409.79  403.49  225.87  177.62    0.00    0.00   0.225   0.148   0.050   0.114   0.103   0.080   0.071   0.062   0.070   0.209   0.296
 2015 272   108  16.20  25.10  13.80 -99.000   3.590   2.575   1.000 -99.000 -99.000 -99.000   3.575   2.575   1.000   0.000   0.000  413.38  407.07  228.44  178.62    0.00    0.00   0.215   0.139   0.048   0.098   0.087   0.068   0.060   0.052   0.058   0.175   0.258
 2015 273   109  20.20  27.50  14.90 -99.000   4.649   3.323   1.308 -99.000 -99.000 -99.000   4.631   3.323   1.308   0.000   0.000  418.03  411.70  231.76  179.93    0.00    0.00   0.273   0.194   0.068   0.132   0.115   0.089   0.076   0.066   0.074   0.221   0.332
 2015 274   110  18.30  28.20  16.30 -99.000   4.294   3.056   1.221 -99.000 -99.000 -99.000   4.277   3.056   1.221   0.000   0.000  422.32  415.97  234.82  181.15    0.00    0.00   0.227   0.169   0.057   0.126   0.113   0.090   0.077   0.066   0.074   0.221   0.306
 2015 275   111  23.30  29.40  14.90 -99.000   5.467   3.875   1.571 -99.000 -99.000 -99.000   5.446   3.875   1.571   0.000   0.000  427.79  421.42  238.70  182.72    0.00    0.00   0.276   0.209   0.071   0.163   0.148   0.119   0.102   0.088   0.099   0.296   0.388
 2015 276   112  24.90  28.90  13.60 -99.000   5.745   4.054   1.668 -99.000 -99.000 -99.000   5.722   4.054   1.668   0.000   0.000  433.53  427.14  242.75  184.39    0.00    0.00   0.282   0.217   0.074   0.171   0.159   0.128   0.111   0.096   0.108   0.323   0.405
 2015 277   113  22.50  30.10  15.50 -99.000   5.336   3.751   1.566 -99.000 -99.000 -99.000   4.802   3.751   1.051   0.000   0.000  438.87  431.94  246.50  185.44    0.00    0.00   0.856   0.113   0.019   0.025   0.014   0.008   0.005   0.003   0.003   0.006   0.375
 2015 278   114  20.20  28.50  16.10 -99.000   4.720   3.303   1.399 -99.000 -99.000 -99.000   4.366   3.303   1.062   0.000   0.000  443.59  436.31  249.80  186.50    0.00    0.00   0.873   0.109   0.018   0.024   0.014   0.008   0.005   0.003   0.003   0.006   0.330
 2015 279   115  21.30  26.50  14.40 -99.000   4.814   3.354   1.442 -99.000 -99.000 -99.000   4.795   3.354   1.442   0.000   0.000  448.40  441.10  253.16  187.95    0.00    0.00   0.291   0.182   0.060   0.130   0.130   0.105   0.094   0.082   0.092   0.275   0.335
 2015 280   116  19.90  27.70  13.90 -99.000   4.572   3.171   1.383 -99.000 -99.000 -99.000   4.554   3.171   1.383   0.000   0.000  452.98  445.66  256.33  189.33    0.00    0.00   0.270   0.184   0.060   0.124   0.123   0.100   0.090   0.079   0.088   0.264   0.317
 2015 281   117  22.80  27.40  12.40 -99.000   5.142   3.549   1.572 -99.000 -99.000 -99.000   5.121   3.549   1.572   0.000   0.000  458.12  450.78  259.88  190.90    0.00    0.00   0.288   0.208   0.069   0.143   0.142   0.115   0.105   0.091   0.103   0.308   0.355
 2015 282   118  23.70  27.50  12.80 -99.000   5.362   3.684   1.657 -99.000 -99.000 -99.000   4.799   3.684   1.115   0.000   0.000  463.48  455.58  263.56  192.02    0.00    0.00   0.923   0.115   0.018   0.021   0.013   0.007   0.005   0.003   0.003   0.006   0.368
 2015 283   119  19.20  28.90  15.00 -99.000   4.485   3.068   1.401 -99.000 -99.000 -99.000   4.056   3.068   0.989   0.000   0.000  467.96  459.63  266.63  193.00    0.00    0.00   0.804   0.110   0.018   0.020   0.013   0.007   0.005   0.003   0.003   0.006   0.307
 2015 284   120  16.20  27.70  14.60 -99.000   3.716   2.529   1.173 -99.000 -99.000 -99.000   3.559   2.529   1.030   0.000   0.000  471.68  463.19  269.16  194.03    0.00    0.00   0.850   0.107   0.017   0.020   0.013   0.007   0.005   0.003   0.003   0.006   0.253
 2015 285   121  20.70  28.60  13.00 -99.000   4.759   3.222   1.519 -99.000 -99.000 -99.000   4.312   3.222   1.090   0.000   0.000  476.44  467.50  272.38  195.12    0.00    0.00   0.914   0.104   0.016   0.019   0.013   0.007   0.005   0.003   0.003   0.006   0.322
 2015 286   122  21.70  28.60  12.70 -99.000   4.970   3.347   1.604 -99.000 -99.000 -99.000   4.316   3.347   0.969   0.000   0.000  481.41  471.82  275.73  196.09    0.00    0.00   0.799   0.100   0.016   0.018   0.013   0.007   0.005   0.003   0.003   0.006   0.335
 2015 287   123  23.90  29.20  11.60 -99.000   5.459   3.656   1.782 -99.000 -99.000 -99.000   4.516   3.656   0.860   0.000   0.000  486.87  476.34  279.38  196.95    0.00    0.00   0.695   0.096   0.016   0.017   0.012   0.007   0.005   0.003   0.003   0.006   0.366
 2015 288   124  24.90  29.00  13.50 -99.000   5.754   3.833   1.900 -99.000 -99.000 -99.000   4.618   3.833   0.785   0.000   0.000  492.62  480.96  283.22  197.74    0.00    0.00   0.625   0.093   0.015   0.016   0.012   0.007   0.005   0.003   0.003   0.006   0.383
 2015 289   125  19.60  28.30  14.10 -99.000   4.512   2.987   1.507 -99.000 -99.000 -99.000   3.698   2.977   0.722   0.000   0.000  497.13  484.65  286.19  198.46    0.00    0.00   0.566   0.091   0.015   0.015   0.012   0.007   0.005   0.003   0.003   0.006   0.298
 2015 290   126  19.90  27.00  14.00 -99.000   4.506   2.965   1.524 -99.000 -99.000 -99.000   3.632   2.965   0.667   0.000   0.000  501.64  488.29  289.16  199.13    0.00    0.00   0.515   0.089   0.015   0.014   0.012   0.006   0.005   0.003   0.003   0.006   0.297
 2015 291   127  18.80  26.60  13.90 -99.000   4.232   2.767   1.449 -99.000 -99.000 -99.000   3.384   2.767   0.617   0.000   0.000  505.87  491.67  291.93  199.74    0.00    0.00   0.468   0.087   0.014   0.014   0.011   0.006   0.005   0.003   0.003   0.006   0.277
 2015 292   128  17.40  26.50  12.50 -99.000   3.869   2.512   1.342 -99.000 -99.000 -99.000   3.334   2.512   0.822   0.000   0.000  509.74  495.00  294.44  200.57    0.00    0.00   0.675   0.085   0.014   0.013   0.011   0.006   0.005   0.003   0.003   0.006   0.251
 2015 293   129  23.80  28.80  10.20 -99.000   5.389   3.474   1.894 -99.000 -99.000 -99.000   4.482   3.474   1.008   0.000   0.000  515.13  499.49  297.91  201.57    0.00    0.00   0.864   0.084   0.014   0.013   0.010   0.006   0.005   0.003   0.003   0.006   0.347
 2015 294   130  22.70  29.00  10.50 -99.000   5.153   3.297   1.836 -99.000 -99.000 -99.000   4.150   3.297   0.853   0.000   0.000  520.28  503.64  301.21  202.43    0.00    0.00   0.711   0.083   0.014   0.013   0.010   0.006   0.005   0.003   0.003   0.006   0.330
 2015 295   131  20.30  26.60  11.10 -99.000   4.495   2.853   1.625 -99.000 -99.000 -99.000   3.623   2.853   0.770   0.000   0.000  524.78  507.26  304.06  203.20    0.00    0.00   0.630   0.082   0.014   0.013   0.010   0.005   0.005   0.003   0.003   0.006   0.285
 2015 296   132  18.10  25.80  11.20 -99.000   3.971   2.499   1.456 -99.000 -99.000 -99.000   3.193   2.486   0.707   0.000   0.000  528.75  510.45  306.55  203.90    0.00    0.00   0.569   0.080   0.013   0.013   0.009   0.005   0.005   0.003   0.003   0.006   0.249
 2015 297   133  18.80  26.10  11.90 -99.000   4.162   2.596   1.550 -99.000 -99.000 -99.000   3.250   2.596   0.653   0.000   0.000  532.91  513.70  309.14  204.56    0.00    0.00   0.517   0.080   0.013   0.013   0.009   0.005   0.005   0.003   0.003   0.006   0.260
 2015 298   134  22.60  29.00  12.70 -99.000   5.211   3.222   1.971 -99.000 -99.000 -99.000   3.826   3.222   0.604   0.000   0.000  538.12  517.53  312.37  205.16    0.00    0.00   0.470   0.079   0.013   0.012   0.008   0.005   0.005   0.003   0.003   0.006   0.322
 2015 299   135  21.70  31.00  14.50 -99.000   5.190   3.178   1.995 -99.000 -99.000 -99.000   3.738   3.178   0.560   0.000   0.000  543.31  521.27  315.54  205.72    0.00    0.00   0.428   0.078   0.013   0.012   0.008   0.004   0.005   0.003   0.003   0.006   0.318
 2015 300   136  20.60  29.50  13.80 -99.000   4.818   2.919   1.883 -99.000 -99.000 -99.000   3.438   2.919   0.519   0.000   0.000  548.13  524.70  318.46  206.24    0.00    0.00   0.389   0.077   0.013   0.012   0.007   0.004   0.005   0.003   0.003   0.006   0.292
 2015 301   137  21.90  28.60  14.80 -99.000   5.109   3.062   2.030 -99.000 -99.000 -99.000   3.917   3.062   0.855   0.000   0.000  553.24  528.62  321.52  207.10    0.00    0.00   0.721   0.081   0.013   0.012   0.007   0.004   0.005   0.003   0.003   0.006   0.306
 2015 302   138  22.10  28.80  14.60 -99.000   5.242   3.106   2.119 -99.000 -99.000 -99.000   5.225   3.106   2.119   0.000   0.000  558.48  533.85  324.63  209.21    0.00    0.00   0.514   0.259   0.073   0.120   0.107   0.087   0.166   0.144   0.163   0.486   0.311
 2015 303   139  21.90  29.00  14.30 -99.000   5.191   3.076   2.098 -99.000 -99.000 -99.000   5.175   3.076   2.098   0.000   0.000  563.67  539.02  327.71  211.31    0.00    0.00   0.459   0.282   0.072   0.119   0.106   0.086   0.168   0.146   0.165   0.494   0.308
 2015 304   140  18.50  29.20  14.60 -99.000   4.390   2.601   1.774 -99.000 -99.000 -99.000   3.573   2.601   0.972   0.000   0.000  568.06  542.59  330.31  212.29    0.00    0.00   0.831   0.091   0.012   0.011   0.006   0.003   0.005   0.003   0.003   0.006   0.260
 2015 305   141  19.40  29.30  14.90 -99.000   4.598   2.725   1.859 -99.000 -99.000 -99.000   3.767   2.725   1.042   0.000   0.000  572.66  546.36  333.03  213.33    0.00    0.00   0.897   0.095   0.012   0.011   0.006   0.003   0.005   0.003   0.003   0.006   0.272
