*SOIL-PLANT-ATMOSPHERE MODULE OUTPUT FILE

*DSSAT Cropping System Model Ver. 4.7.5.008 -release  JAN 07, 2021 20:14:37

*RUN   1        : ERiMA DCC1                MZCER047 ETMZmelk    1
 MODEL          : MZCER047 - Maize
 EXPERIMENT     : ETMZmelk SN MELKSSAL
 DATA PATH      : C:\IRI\Python_Dash\ET_DSS_hist\TEST\
 TREATMENT  1   : ERiMA DCC1                MZCER047
  
!                                                                                                                                                                                        Soil evaporation (mm/d) by soil depth (cm):
!                                                                                                                                                                                        0-5    5-15   15-20   20-35   35-50   50-65   65-81   81-97  97-118 118-200
@YEAR DOY   DAS   SRAA  TMAXA  TMINA    REFA    EOAA    EOPA    EOSA    KCAA    KCBA    KEAA    ETAA    EPAA    ESAA    EFAA    EMAA    EOAC    ETAC    EPAC    ESAC    EFAC    EMAC    ES1D    ES2D    ES3D    ES4D    ES5D    ES6D    ES7D    ES8D    ES9D   ES10D   TRWUD
 1981 165     1  21.00  29.40  14.70 -99.000   5.502   0.000   5.502 -99.000 -99.000 -99.000   1.007   0.000   1.007   0.000   0.000    5.50    1.01    0.00    1.01    0.00    0.00   0.824   0.105   0.017   0.022   0.015   0.008   0.005   0.003   0.003   0.006   0.000
 1981 166     2  19.00  28.70  15.50 -99.000   4.948   0.000   4.948 -99.000 -99.000 -99.000   0.932   0.000   0.932   0.000   0.000   10.45    1.94    0.00    1.94    0.00    0.00   0.749   0.104   0.017   0.022   0.015   0.008   0.005   0.003   0.003   0.006   0.000
 1981 167     3  21.90  31.20  14.90 -99.000   5.819   0.000   5.819 -99.000 -99.000 -99.000   0.863   0.000   0.863   0.000   0.000   16.27    2.80    0.00    2.80    0.00    0.00   0.681   0.104   0.017   0.021   0.015   0.008   0.005   0.003   0.003   0.006   0.000
 1981 168     4  20.10  28.90  16.60 -99.000   5.253   0.000   5.253 -99.000 -99.000 -99.000   0.800   0.000   0.800   0.000   0.000   21.52    3.60    0.00    3.60    0.00    0.00   0.619   0.103   0.017   0.021   0.015   0.008   0.005   0.003   0.003   0.006   0.000
 1981 169     5  22.60  32.30  14.90 -99.000   6.040   0.000   6.040 -99.000 -99.000 -99.000   0.743   0.000   0.743   0.000   0.000   27.56    4.35    0.00    4.35    0.00    0.00   0.563   0.102   0.017   0.021   0.015   0.008   0.005   0.003   0.003   0.006   0.000
 1981 170     6  20.20  28.90  16.30 -99.000   5.237   0.000   5.237 -99.000 -99.000 -99.000   0.691   0.000   0.691   0.000   0.000   32.80    5.04    0.00    5.04    0.00    0.00   0.512   0.102   0.017   0.021   0.015   0.008   0.005   0.003   0.003   0.006   0.000
 1981 171     7  19.10  28.00  16.10 -99.000   4.881   0.000   4.881 -99.000 -99.000 -99.000   0.644   0.000   0.644   0.000   0.000   37.68    5.68    0.00    5.68    0.00    0.00   0.465   0.101   0.017   0.021   0.015   0.008   0.005   0.003   0.003   0.006   0.000
 1981 172     8  19.10  27.50  15.90 -99.000   4.833   0.011   4.822 -99.000 -99.000 -99.000   0.612   0.011   0.601   0.000   0.000   42.51    6.29    0.01    6.28    0.00    0.00   0.423   0.101   0.017   0.021   0.015   0.008   0.005   0.003   0.003   0.006   0.001
 1981 173     9  20.30  30.00  15.40 -99.000   5.252   0.023   5.229 -99.000 -99.000 -99.000   0.585   0.023   0.562   0.000   0.000   47.76    6.88    0.03    6.84    0.00    0.00   0.384   0.100   0.017   0.021   0.015   0.008   0.005   0.003   0.003   0.006   0.002
 1981 174    10  21.90  31.00  14.80 -99.000   5.692   0.041   5.651 -99.000 -99.000 -99.000   0.567   0.041   0.526   0.000   0.000   53.46    7.45    0.08    7.37    0.00    0.00   0.349   0.099   0.017   0.021   0.015   0.008   0.005   0.003   0.003   0.006   0.004
 1981 175    11  19.70  28.00  16.80 -99.000   5.013   0.051   4.962 -99.000 -99.000 -99.000   0.791   0.051   0.739   0.000   0.000   58.47    8.24    0.13    8.11    0.00    0.00   0.563   0.098   0.017   0.021   0.015   0.008   0.005   0.003   0.003   0.006   0.005
 1981 176    12  21.20  30.20  14.50 -99.000   5.559   0.110   5.449 -99.000 -99.000 -99.000   1.187   0.110   1.077   0.000   0.000   64.03    9.42    0.24    9.19    0.00    0.00   0.899   0.101   0.017   0.021   0.015   0.008   0.005   0.003   0.003   0.006   0.011
 1981 177    13  20.40  29.10  15.10 -99.000   5.352   0.167   5.185 -99.000 -99.000 -99.000   1.302   0.167   1.135   0.000   0.000   69.38   10.73    0.40   10.32    0.00    0.00   0.955   0.103   0.017   0.021   0.015   0.008   0.005   0.003   0.003   0.006   0.017
 1981 178    14  17.30  25.40  16.60 -99.000   4.368   0.192   4.175 -99.000 -99.000 -99.000   1.230   0.192   1.039   0.000   0.000   73.75   11.96    0.59   11.36    0.00    0.00   0.859   0.102   0.017   0.021   0.015   0.008   0.005   0.003   0.003   0.006   0.019
 1981 179    15  18.40  28.50  16.60 -99.000   4.784   0.270   4.513 -99.000 -99.000 -99.000   1.219   0.270   0.949   0.000   0.000   78.53   13.17    0.86   12.31    0.00    0.00   0.771   0.101   0.017   0.021   0.015   0.008   0.005   0.003   0.003   0.006   0.027
 1981 180    16  20.50  30.10  15.60 -99.000   5.352   0.386   4.964 -99.000 -99.000 -99.000   1.331   0.319   1.013   0.000   0.000   83.89   14.51    1.18   13.32    0.00    0.00   0.835   0.100   0.017   0.021   0.015   0.008   0.005   0.003   0.003   0.006   0.032
 1981 181    17  19.90  29.00  15.60 -99.000   5.176   0.422   4.752 -99.000 -99.000 -99.000   1.496   0.422   1.074   0.000   0.000   89.06   16.00    1.60   14.40    0.00    0.00   0.898   0.099   0.016   0.021   0.015   0.008   0.005   0.003   0.003   0.006   0.042
 1981 182    18  13.30  24.80  16.10 -99.000   3.280   0.330   2.948 -99.000 -99.000 -99.000   1.298   0.330   0.968   0.000   0.000   92.34   17.30    1.94   15.37    0.00    0.00   0.793   0.098   0.016   0.021   0.015   0.008   0.005   0.003   0.003   0.006   0.033
 1981 183    19  16.80  25.80  15.30 -99.000   4.138   0.487   3.648 -99.000 -99.000 -99.000   1.303   0.422   0.881   0.000   0.000   96.48   18.60    2.36   16.25    0.00    0.00   0.707   0.097   0.016   0.021   0.014   0.008   0.005   0.003   0.003   0.006   0.042
 1981 184    20  22.10  28.20  15.50 -99.000   5.578   0.715   4.860 -99.000 -99.000 -99.000   1.408   0.407   1.001   0.000   0.000  102.06   20.01    2.76   17.25    0.00    0.00   0.827   0.097   0.016   0.021   0.014   0.008   0.005   0.003   0.003   0.006   0.041
 1981 185    21  21.10  27.30  15.40 -99.000   5.338   0.718   4.615 -99.000 -99.000 -99.000   5.334   0.718   4.615   0.000   0.000  107.40   25.34    3.48   21.86    0.00    0.00   0.889   0.533   0.168   0.400   0.452   0.367   0.313   0.272   0.307   0.915   0.072
 1981 186    22  19.60  26.60  15.90 -99.000   4.928   0.787   4.137 -99.000 -99.000 -99.000   4.924   0.787   4.137   0.000   0.000  112.32   30.27    4.27   26.00    0.00    0.00   0.765   0.496   0.149   0.358   0.406   0.331   0.282   0.246   0.277   0.828   0.079
 1981 187    23  21.60  28.30  16.10 -99.000   5.490   1.042   4.442 -99.000 -99.000 -99.000   2.093   1.042   1.051   0.000   0.000  117.81   32.36    5.31   27.05    0.00    0.00   0.875   0.101   0.015   0.020   0.014   0.008   0.005   0.003   0.003   0.006   0.104
 1981 188    24  22.60  29.80  14.50 -99.000   5.711   1.280   4.424 -99.000 -99.000 -99.000   2.204   1.280   0.924   0.000   0.000  123.52   34.57    6.59   27.97    0.00    0.00   0.752   0.098   0.015   0.020   0.014   0.008   0.005   0.003   0.003   0.006   0.128
 1981 189    25  19.70  27.20  16.40 -99.000   4.862   1.218   3.638 -99.000 -99.000 -99.000   1.914   1.090   0.823   0.000   0.000  128.39   36.48    7.68   28.80    0.00    0.00   0.656   0.093   0.015   0.020   0.014   0.008   0.005   0.003   0.003   0.006   0.109
 1981 190    26  15.90  24.10  15.40 -99.000   3.732   1.011   2.715 -99.000 -99.000 -99.000   1.763   1.011   0.752   0.000   0.000  132.12   38.24    8.69   29.55    0.00    0.00   0.589   0.090   0.014   0.020   0.014   0.008   0.005   0.003   0.003   0.006   0.101
 1981 191    27  17.50  24.40  14.40 -99.000   4.067   1.187   2.873 -99.000 -99.000 -99.000   2.113   1.078   1.036   0.000   0.000  136.19   40.36    9.77   30.59    0.00    0.00   0.867   0.096   0.014   0.020   0.014   0.008   0.005   0.003   0.003   0.006   0.108
 1981 192    28  15.20  25.10  15.30 -99.000   3.660   1.129   2.525 -99.000 -99.000 -99.000   3.654   1.129   2.525   0.000   0.000  139.85   44.01   10.90   33.11    0.00    0.00   0.553   0.326   0.097   0.191   0.231   0.189   0.161   0.141   0.159   0.475   0.113
 1981 193    29  15.30  25.20  15.30 -99.000   3.681   1.262   2.412 -99.000 -99.000 -99.000   3.674   1.262   2.412   0.000   0.000  143.53   47.68   12.16   35.52    0.00    0.00   0.517   0.355   0.117   0.210   0.210   0.169   0.143   0.125   0.141   0.423   0.126
 1981 194    30  22.20  27.60  15.70 -99.000   5.477   2.069   3.396 -99.000 -99.000 -99.000   5.466   2.069   3.396   0.000   0.000  149.00   53.15   14.23   38.92    0.00    0.00   0.631   0.475   0.161   0.348   0.312   0.249   0.211   0.184   0.207   0.618   0.207
 1981 195    31  18.60  26.90  14.80 -99.000   4.448   1.860   2.577 -99.000 -99.000 -99.000   4.437   1.860   2.577   0.000   0.000  153.45   57.59   16.09   41.50    0.00    0.00   0.446   0.341   0.116   0.269   0.244   0.196   0.167   0.146   0.164   0.488   0.186
 1981 196    32  18.20  25.90  15.50 -99.000   4.288   1.944   2.333 -99.000 -99.000 -99.000   3.030   1.944   1.087   0.000   0.000  157.74   60.62   18.03   42.58    0.00    0.00   0.885   0.117   0.020   0.026   0.015   0.008   0.005   0.003   0.003   0.006   0.194
 1981 197    33  20.20  26.40  14.00 -99.000   4.688   2.286   2.389 -99.000 -99.000 -99.000   3.247   2.286   0.961   0.000   0.000  162.43   63.86   20.32   43.54    0.00    0.00   0.766   0.111   0.019   0.026   0.015   0.008   0.005   0.003   0.003   0.006   0.229
 1981 198    34  17.80  25.80  15.10 -99.000   4.104   2.153   1.939 -99.000 -99.000 -99.000   3.268   2.153   1.115   0.000   0.000  166.53   67.13   22.47   44.66    0.00    0.00   0.921   0.111   0.018   0.026   0.015   0.008   0.005   0.003   0.003   0.006   0.215
 1981 199    35  19.50  25.90  14.70 -99.000   4.506   2.521   1.970 -99.000 -99.000 -99.000   4.491   2.521   1.970   0.000   0.000  171.04   71.62   24.99   46.63    0.00    0.00   0.410   0.251   0.080   0.192   0.179   0.145   0.123   0.108   0.121   0.361   0.252
 1981 200    36  18.40  25.20  15.60 -99.000   4.237   2.506   1.716 -99.000 -99.000 -99.000   4.222   2.506   1.716   0.000   0.000  175.27   75.84   27.50   48.34    0.00    0.00   0.324   0.223   0.075   0.173   0.159   0.129   0.110   0.095   0.107   0.320   0.251
 1981 201    37  16.70  24.60  16.00 -99.000   3.790   2.356   1.421 -99.000 -99.000 -99.000   3.777   2.356   1.421   0.000   0.000  179.06   79.62   29.86   49.77    0.00    0.00   0.286   0.182   0.061   0.143   0.130   0.105   0.089   0.077   0.087   0.260   0.236
 1981 202    38  19.10  25.80  16.20 -99.000   4.405   2.859   1.530 -99.000 -99.000 -99.000   4.389   2.859   1.530   0.000   0.000  183.47   84.01   32.71   51.30    0.00    0.00   0.290   0.198   0.067   0.157   0.142   0.115   0.098   0.085   0.096   0.284   0.286
 1981 203    39  16.50  24.40  14.90 -99.000   3.669   2.479   1.175 -99.000 -99.000 -99.000   3.655   2.479   1.175   0.000   0.000  187.14   87.66   35.19   52.47    0.00    0.00   0.208   0.148   0.050   0.122   0.112   0.091   0.077   0.067   0.076   0.224   0.248
 1981 204    40  19.70  25.40  14.60 -99.000   4.400   3.072   1.311 -99.000 -99.000 -99.000   4.383   3.072   1.311   0.000   0.000  191.54   92.05   38.26   53.78    0.00    0.00   0.254   0.177   0.060   0.132   0.120   0.097   0.082   0.071   0.080   0.238   0.307
 1981 205    41  21.50  25.80  14.90 -99.000   4.844   3.485   1.339 -99.000 -99.000 -99.000   4.824   3.485   1.339   0.000   0.000  196.38   96.87   41.75   55.12    0.00    0.00   0.279   0.193   0.067   0.133   0.118   0.094   0.080   0.069   0.077   0.228   0.348
 1981 206    42  18.60  24.80  15.20 -99.000   4.135   3.059   1.058 -99.000 -99.000 -99.000   4.117   3.059   1.058   0.000   0.000  200.52  100.99   44.81   56.18    0.00    0.00   0.218   0.151   0.054   0.107   0.095   0.075   0.063   0.055   0.061   0.179   0.306
 1981 207    43  13.70  21.80  15.00 -99.000   2.922   2.214   0.694 -99.000 -99.000 -99.000   2.908   2.214   0.694   0.000   0.000  203.44  103.90   47.02   56.87    0.00    0.00   0.142   0.098   0.035   0.071   0.063   0.050   0.042   0.036   0.040   0.117   0.221
 1981 208    44  19.70  24.40  14.40 -99.000   4.306   3.328   0.958 -99.000 -99.000 -99.000   4.286   3.328   0.958   0.000   0.000  207.74  108.18   50.35   57.83    0.00    0.00   0.197   0.131   0.049   0.098   0.087   0.070   0.059   0.050   0.056   0.163   0.333
 1981 209    45  19.20  24.60  15.10 -99.000   4.218   3.324   0.874 -99.000 -99.000 -99.000   4.199   3.324   0.874   0.000   0.000  211.96  112.38   53.68   58.71    0.00    0.00   0.180   0.114   0.044   0.088   0.079   0.064   0.054   0.047   0.052   0.152   0.332
 1981 210    46  13.90  23.70  15.30 -99.000   3.017   2.422   0.581 -99.000 -99.000 -99.000   3.003   2.422   0.581   0.000   0.000  214.98  115.38   56.10   59.29    0.00    0.00   0.119   0.077   0.029   0.058   0.052   0.042   0.036   0.031   0.035   0.101   0.242
 1981 211    47  15.40  24.40  15.00 -99.000   3.357   2.734   0.607 -99.000 -99.000 -99.000   3.341   2.734   0.607   0.000   0.000  218.34  118.73   58.83   59.89    0.00    0.00   0.123   0.086   0.030   0.062   0.054   0.044   0.037   0.032   0.035   0.103   0.273
 1981 212    48  14.70  23.10  14.60 -99.000   3.137   2.591   0.531 -99.000 -99.000 -99.000   3.122   2.591   0.531   0.000   0.000  221.47  121.85   61.42   60.43    0.00    0.00   0.106   0.072   0.027   0.055   0.049   0.039   0.033   0.028   0.031   0.091   0.259
 1981 213    49  20.40  26.00  13.40 -99.000   4.457   3.726   0.709 -99.000 -99.000 -99.000   4.435   3.726   0.709   0.000   0.000  225.93  126.28   65.15   61.13    0.00    0.00   0.142   0.093   0.035   0.072   0.064   0.052   0.045   0.039   0.043   0.124   0.373
 1981 214    50  13.70  24.60  15.70 -99.000   2.992   2.534   0.443 -99.000 -99.000 -99.000   2.977   2.534   0.443   0.000   0.000  228.92  129.26   67.68   61.58    0.00    0.00   0.088   0.060   0.022   0.046   0.040   0.033   0.028   0.024   0.026   0.077   0.253
 1981 215    51  20.00  25.60  14.70 -99.000   4.379   3.752   0.605 -99.000 -99.000 -99.000   4.357   3.752   0.605   0.000   0.000  233.30  133.62   71.43   62.18    0.00    0.00   0.110   0.082   0.028   0.064   0.056   0.045   0.038   0.033   0.037   0.110   0.375
 1981 216    52  18.30  24.60  15.80 -99.000   3.980   3.451   0.509 -99.000 -99.000 -99.000   3.960   3.451   0.509   0.000   0.000  237.28  137.58   74.89   62.69    0.00    0.00   0.088   0.067   0.023   0.053   0.048   0.039   0.033   0.029   0.032   0.096   0.345
 1981 217    53  19.70  24.80  15.70 -99.000   4.283   3.746   0.516 -99.000 -99.000 -99.000   4.262   3.746   0.516   0.000   0.000  241.56  141.84   78.63   63.21    0.00    0.00   0.086   0.066   0.022   0.054   0.050   0.040   0.034   0.030   0.034   0.100   0.375
 1981 218    54  20.50  25.10  15.20 -99.000   4.449   3.922   0.505 -99.000 -99.000 -99.000   4.427   3.922   0.505   0.000   0.000  246.01  146.27   82.55   63.71    0.00    0.00   0.095   0.068   0.023   0.051   0.046   0.038   0.032   0.028   0.031   0.093   0.392
 1981 219    55  23.00  25.30  14.30 -99.000   4.974   4.415   0.533 -99.000 -99.000 -99.000   4.948   4.415   0.533   0.000   0.000  250.99  151.21   86.97   64.24    0.00    0.00   0.099   0.072   0.024   0.054   0.049   0.040   0.034   0.029   0.033   0.099   0.442
 1981 220    56  22.20  25.70  13.50 -99.000   4.782   4.273   0.484 -99.000 -99.000 -99.000   4.757   4.273   0.484   0.000   0.000  255.77  155.97   91.24   64.73    0.00    0.00   0.085   0.063   0.021   0.049   0.046   0.037   0.032   0.028   0.031   0.093   0.427
 1981 221    57  22.30  26.20  15.60 -99.000   4.908   4.410   0.473 -99.000 -99.000 -99.000   4.883   4.410   0.473   0.000   0.000  260.68  160.85   95.65   65.20    0.00    0.00   0.079   0.059   0.020   0.048   0.046   0.037   0.032   0.028   0.031   0.093   0.441
 1981 222    58  18.30  25.20  15.30 -99.000   3.967   3.580   0.366 -99.000 -99.000 -99.000   3.946   3.580   0.366   0.000   0.000  264.64  164.80   99.23   65.57    0.00    0.00   0.058   0.044   0.015   0.037   0.036   0.030   0.025   0.022   0.025   0.074   0.358
 1981 223    59  16.90  25.20  15.90 -99.000   3.678   3.330   0.330 -99.000 -99.000 -99.000   3.659   3.330   0.330   0.000   0.000  268.32  168.46  102.56   65.90    0.00    0.00   0.058   0.038   0.012   0.032   0.032   0.026   0.023   0.020   0.022   0.066   0.333
 1981 224    60  13.10  23.20  16.30 -99.000   2.795   2.535   0.246 -99.000 -99.000 -99.000   2.780   2.535   0.246   0.000   0.000  271.12  171.24  105.10   66.14    0.00    0.00   0.052   0.031   0.010   0.022   0.022   0.018   0.016   0.014   0.016   0.046   0.253
 1981 225    61  21.00  24.60  15.10 -99.000   4.517   4.100   0.394 -99.000 -99.000 -99.000   4.494   4.100   0.394   0.000   0.000  275.63  175.73  109.20   66.54    0.00    0.00   0.086   0.054   0.018   0.035   0.034   0.028   0.024   0.021   0.024   0.071   0.410
 1981 226    62  21.00  25.30  15.40 -99.000   4.565   4.148   0.394 -99.000 -99.000 -99.000   4.541   4.148   0.394   0.000   0.000  280.20  180.27  113.34   66.93    0.00    0.00   0.083   0.054   0.020   0.037   0.033   0.027   0.024   0.021   0.024   0.070   0.415
 1981 227    63  20.40  25.30  14.60 -99.000   4.405   4.006   0.376 -99.000 -99.000 -99.000   4.382   4.006   0.376   0.000   0.000  284.60  184.66  117.35   67.31    0.00    0.00   0.070   0.049   0.017   0.038   0.034   0.027   0.024   0.021   0.024   0.070   0.401
 1981 228    64  14.40  23.50  15.30 -99.000   3.057   2.781   0.259 -99.000 -99.000 -99.000   3.040   2.781   0.259   0.000   0.000  287.66  187.70  120.13   67.56    0.00    0.00   0.049   0.033   0.012   0.026   0.024   0.019   0.017   0.014   0.016   0.049   0.278
 1981 229    65  21.90  25.20  14.80 -99.000   4.728   4.303   0.400 -99.000 -99.000 -99.000   4.703   4.303   0.400   0.000   0.000  292.39  192.40  124.43   67.96    0.00    0.00   0.079   0.052   0.018   0.040   0.036   0.029   0.025   0.022   0.025   0.074   0.430
 1981 230    66  25.00  27.30  13.50 -99.000   5.477   4.988   0.461 -99.000 -99.000 -99.000   5.448   4.988   0.461   0.000   0.000  297.87  197.85  129.42   68.42    0.00    0.00   0.096   0.060   0.020   0.046   0.041   0.032   0.029   0.025   0.028   0.084   0.499
 1981 231    67  25.70  26.60  13.80 -99.000   5.600   5.102   0.469 -99.000 -99.000 -99.000   5.570   5.102   0.469   0.000   0.000  303.47  203.42  134.52   68.89    0.00    0.00   0.089   0.061   0.021   0.048   0.043   0.033   0.030   0.026   0.030   0.088   0.510
 1981 232    68  21.80  25.10  15.10 -99.000   4.709   4.292   0.392 -99.000 -99.000 -99.000   4.685   4.292   0.392   0.000   0.000  308.17  208.10  138.82   69.29    0.00    0.00   0.075   0.050   0.017   0.039   0.036   0.027   0.025   0.022   0.025   0.074   0.429
 1981 233    69  22.10  24.50  14.00 -99.000   4.699   4.284   0.389 -99.000 -99.000 -99.000   4.674   4.284   0.389   0.000   0.000  312.87  212.78  143.10   69.68    0.00    0.00   0.072   0.051   0.017   0.039   0.036   0.027   0.026   0.022   0.025   0.075   0.428
 1981 234    70  17.60  24.20  15.10 -99.000   3.760   3.429   0.311 -99.000 -99.000 -99.000   3.740   3.429   0.311   0.000   0.000  316.63  216.52  146.53   69.99    0.00    0.00   0.061   0.044   0.015   0.030   0.028   0.020   0.020   0.017   0.019   0.057   0.343
 1981 235    71  19.30  24.60  16.00 -99.000   4.180   3.804   0.354 -99.000 -99.000 -99.000   4.158   3.804   0.354   0.000   0.000  320.81  220.67  150.33   70.34    0.00    0.00   0.067   0.049   0.017   0.036   0.032   0.024   0.022   0.019   0.022   0.065   0.380
 1981 236    72  17.90  24.00  15.30 -99.000   3.825   3.472   0.332 -99.000 -99.000 -99.000   3.804   3.472   0.332   0.000   0.000  324.64  224.48  153.81   70.67    0.00    0.00   0.059   0.044   0.015   0.034   0.031   0.025   0.022   0.019   0.021   0.063   0.347
 1981 237    73  19.80  24.90  15.50 -99.000   4.283   3.880   0.381 -99.000 -99.000 -99.000   4.261   3.880   0.381   0.000   0.000  328.92  228.74  157.69   71.05    0.00    0.00   0.313   0.039   0.007   0.009   0.005   0.003   0.002   0.001   0.001   0.002   0.388
 1981 238    74  18.70  25.00  15.80 -99.000   4.060   3.670   0.369 -99.000 -99.000 -99.000   4.039   3.670   0.369   0.000   0.000  332.98  232.78  161.36   71.42    0.00    0.00   0.071   0.049   0.017   0.037   0.034   0.026   0.023   0.020   0.023   0.069   0.367
 1981 239    75  21.10  25.30  14.90 -99.000   4.574   4.126   0.424 -99.000 -99.000 -99.000   4.550   4.126   0.424   0.000   0.000  337.56  237.33  165.48   71.85    0.00    0.00   0.081   0.056   0.019   0.043   0.039   0.031   0.027   0.024   0.026   0.079   0.413
 1981 240    76  22.90  26.10  14.30 -99.000   4.984   4.487   0.472 -99.000 -99.000 -99.000   4.958   4.487   0.472   0.000   0.000  342.54  242.29  169.97   72.32    0.00    0.00   0.084   0.061   0.021   0.048   0.044   0.035   0.031   0.027   0.030   0.090   0.449
 1981 241    77  22.40  25.80  14.20 -99.000   4.853   4.360   0.467 -99.000 -99.000 -99.000   4.828   4.360   0.467   0.000   0.000  347.39  247.11  174.33   72.79    0.00    0.00   0.386   0.048   0.008   0.010   0.006   0.003   0.002   0.001   0.001   0.002   0.436
 1981 242    78  19.50  25.00  15.30 -99.000   4.221   3.786   0.413 -99.000 -99.000 -99.000   4.199   3.786   0.413   0.000   0.000  351.61  251.31  178.12   73.20    0.00    0.00   0.080   0.055   0.019   0.041   0.037   0.029   0.026   0.023   0.026   0.078   0.379
 1981 243    79  17.70  24.20  16.40 -99.000   3.837   3.436   0.381 -99.000 -99.000 -99.000   3.817   3.436   0.381   0.000   0.000  355.45  255.13  181.55   73.58    0.00    0.00   0.073   0.051   0.017   0.038   0.035   0.026   0.024   0.021   0.024   0.071   0.344
 1981 244    80  16.50  23.40  14.50 -99.000   3.485   3.116   0.350 -99.000 -99.000 -99.000   3.466   3.116   0.350   0.000   0.000  358.94  258.60  184.67   73.93    0.00    0.00   0.063   0.046   0.016   0.036   0.033   0.025   0.023   0.020   0.022   0.067   0.312
 1981 245    81  27.40  26.80  13.80 -99.000   5.994   5.354   0.609 -99.000 -99.000 -99.000   5.963   5.354   0.609   0.000   0.000  364.93  264.56  190.02   74.54    0.00    0.00   0.502   0.063   0.010   0.014   0.008   0.004   0.003   0.002   0.002   0.003   0.535
 1981 246    82  20.30  25.40  14.40 -99.000   4.386   3.914   0.450 -99.000 -99.000 -99.000   4.364   3.914   0.450   0.000   0.000  369.32  268.92  193.94   74.99    0.00    0.00   0.367   0.048   0.008   0.011   0.006   0.003   0.002   0.001   0.001   0.002   0.391
 1981 247    83  22.20  26.00  13.90 -99.000   4.811   4.290   0.496 -99.000 -99.000 -99.000   4.786   4.290   0.496   0.000   0.000  374.13  273.71  198.23   75.48    0.00    0.00   0.094   0.063   0.021   0.048   0.046   0.033   0.033   0.029   0.032   0.096   0.429
 1981 248    84  19.00  24.30  14.40 -99.000   4.060   3.619   0.420 -99.000 -99.000 -99.000   4.039   3.619   0.420   0.000   0.000  378.19  277.75  201.84   75.90    0.00    0.00   0.093   0.056   0.018   0.038   0.036   0.026   0.026   0.023   0.026   0.077   0.362
 1981 249    85  20.80  25.20  14.80 -99.000   4.509   4.019   0.467 -99.000 -99.000 -99.000   4.485   4.019   0.467   0.000   0.000  382.70  282.23  205.86   76.37    0.00    0.00   0.091   0.063   0.021   0.046   0.042   0.029   0.030   0.026   0.030   0.088   0.402
 1981 250    86  20.10  25.70  14.70 -99.000   4.374   3.898   0.453 -99.000 -99.000 -99.000   4.352   3.898   0.453   0.000   0.000  387.07  286.59  209.76   76.82    0.00    0.00   0.092   0.064   0.022   0.046   0.040   0.027   0.028   0.025   0.028   0.083   0.390
 1981 251    87  23.80  26.50  15.00 -99.000   5.248   4.676   0.545 -99.000 -99.000 -99.000   5.221   4.676   0.545   0.000   0.000  392.32  291.81  214.44   77.37    0.00    0.00   0.104   0.075   0.026   0.056   0.050   0.034   0.034   0.030   0.034   0.101   0.468
 1981 252    88  22.70  26.30  15.70 -99.000   5.015   4.468   0.521 -99.000 -99.000 -99.000   4.990   4.468   0.521   0.000   0.000  397.33  296.80  218.91   77.89    0.00    0.00   0.093   0.069   0.024   0.054   0.049   0.036   0.034   0.030   0.033   0.100   0.447
 1981 253    89  20.50  25.40  15.80 -99.000   4.482   3.993   0.467 -99.000 -99.000 -99.000   4.460   3.993   0.467   0.000   0.000  401.81  301.26  222.90   78.36    0.00    0.00   0.384   0.048   0.008   0.011   0.006   0.003   0.002   0.001   0.001   0.002   0.399
 1981 254    90  17.30  24.40  15.30 -99.000   3.721   3.314   0.388 -99.000 -99.000 -99.000   3.702   3.314   0.388   0.000   0.000  405.54  304.96  226.21   78.75    0.00    0.00   0.073   0.050   0.017   0.039   0.036   0.026   0.026   0.022   0.025   0.075   0.331
 1981 255    91  21.30  24.80  14.50 -99.000   4.581   4.079   0.479 -99.000 -99.000 -99.000   4.558   4.079   0.479   0.000   0.000  410.12  309.52  230.29   79.22    0.00    0.00   0.091   0.063   0.021   0.047   0.044   0.031   0.031   0.027   0.031   0.092   0.408
 1981 256    92  18.10  23.80  15.40 -99.000   3.871   3.446   0.405 -99.000 -99.000 -99.000   3.851   3.446   0.405   0.000   0.000  413.99  313.37  233.74   79.63    0.00    0.00   0.074   0.053   0.018   0.039   0.038   0.026   0.027   0.024   0.027   0.080   0.345
 1981 257    93  14.80  23.30  15.40 -99.000   3.145   2.799   0.330 -99.000 -99.000 -99.000   3.129   2.799   0.330   0.000   0.000  417.13  316.50  236.54   79.96    0.00    0.00   0.064   0.043   0.014   0.031   0.030   0.020   0.022   0.019   0.022   0.064   0.280
 1981 258    94  20.10  24.90  16.10 -99.000   4.384   3.901   0.461 -99.000 -99.000 -99.000   4.362   3.901   0.461   0.000   0.000  421.52  320.86  240.44   80.42    0.00    0.00   0.100   0.063   0.021   0.041   0.040   0.027   0.029   0.025   0.029   0.086   0.390
 1981 259    95  20.70  25.30  15.60 -99.000   4.522   4.023   0.477 -99.000 -99.000 -99.000   4.499   4.023   0.477   0.000   0.000  426.04  325.36  244.46   80.90    0.00    0.00   0.107   0.066   0.023   0.044   0.040   0.026   0.029   0.026   0.029   0.087   0.402
 1981 260    96  22.50  26.00  13.80 -99.000   4.887   4.345   0.516 -99.000 -99.000 -99.000   4.861   4.345   0.516   0.000   0.000  430.93  330.22  248.81   81.41    0.00    0.00   0.101   0.070   0.024   0.052   0.046   0.029   0.033   0.029   0.033   0.098   0.435
 1981 261    97  17.30  24.30  15.30 -99.000   3.721   3.308   0.394 -99.000 -99.000 -99.000   3.702   3.308   0.394   0.000   0.000  434.65  333.92  252.11   81.81    0.00    0.00   0.081   0.053   0.018   0.040   0.035   0.021   0.025   0.022   0.025   0.074   0.331
 1981 262    98  18.90  24.10  15.40 -99.000   4.063   3.610   0.432 -99.000 -99.000 -99.000   4.042   3.610   0.432   0.000   0.000  438.71  337.96  255.72   82.24    0.00    0.00   0.092   0.063   0.021   0.045   0.038   0.022   0.026   0.023   0.026   0.077   0.361
 1981 263    99  22.90  25.00  15.10 -99.000   4.967   4.411   0.530 -99.000 -99.000 -99.000   4.941   4.411   0.530   0.000   0.000  443.68  342.90  260.13   82.77    0.00    0.00   0.100   0.075   0.025   0.056   0.049   0.033   0.033   0.029   0.032   0.097   0.441
 1981 264   100  23.80  26.30  16.50 -99.000   5.294   4.700   0.568 -99.000 -99.000 -99.000   5.268   4.700   0.568   0.000   0.000  448.97  348.17  264.83   83.34    0.00    0.00   0.110   0.077   0.027   0.058   0.052   0.040   0.035   0.031   0.035   0.103   0.470
 1981 265   101  18.40  25.10  15.00 -99.000   3.990   3.540   0.430 -99.000 -99.000 -99.000   3.970   3.540   0.430   0.000   0.000  452.96  352.14  268.37   83.77    0.00    0.00   0.090   0.057   0.020   0.043   0.039   0.030   0.026   0.023   0.026   0.077   0.354
 1981 266   102  21.40  25.70  14.70 -99.000   4.666   4.137   0.506 -99.000 -99.000 -99.000   4.643   4.137   0.506   0.000   0.000  457.63  356.78  272.51   84.27    0.00    0.00   0.096   0.066   0.023   0.052   0.047   0.037   0.032   0.028   0.031   0.093   0.414
 1981 267   103  23.20  26.50  13.00 -99.000   5.033   4.458   0.548 -99.000 -99.000 -99.000   5.007   4.458   0.548   0.000   0.000  462.66  361.79  276.97   84.82    0.00    0.00   0.098   0.072   0.025   0.056   0.052   0.041   0.036   0.031   0.035   0.104   0.446
 1981 268   104  22.10  25.80  13.70 -99.000   4.779   4.230   0.524 -99.000 -99.000 -99.000   4.754   4.230   0.524   0.000   0.000  467.44  366.54  281.20   85.35    0.00    0.00   0.433   0.053   0.009   0.011   0.007   0.004   0.002   0.002   0.001   0.003   0.423
 1981 269   105  14.50  22.80  15.10 -99.000   3.057   2.703   0.338 -99.000 -99.000 -99.000   3.041   2.703   0.338   0.000   0.000  470.50  369.58  283.90   85.68    0.00    0.00   0.065   0.044   0.015   0.032   0.031   0.024   0.022   0.019   0.021   0.064   0.270
 1981 270   106  20.60  24.10  14.70 -99.000   4.407   3.894   0.490 -99.000 -99.000 -99.000   4.384   3.894   0.490   0.000   0.000  474.90  373.97  287.80   86.17    0.00    0.00   0.094   0.065   0.022   0.047   0.045   0.034   0.032   0.028   0.031   0.093   0.389
 1981 271   107  20.80  25.20  15.40 -99.000   4.530   3.999   0.508 -99.000 -99.000 -99.000   4.508   3.999   0.508   0.000   0.000  479.43  378.48  291.79   86.68    0.00    0.00   0.093   0.067   0.022   0.049   0.047   0.035   0.034   0.029   0.033   0.099   0.400
 1981 272   108  17.60  23.50  15.30 -99.000   3.752   3.307   0.425 -99.000 -99.000 -99.000   3.732   3.307   0.425   0.000   0.000  483.19  382.21  295.10   87.11    0.00    0.00   0.352   0.044   0.007   0.009   0.005   0.003   0.002   0.001   0.001   0.002   0.331
 1981 273   109  26.20  26.40  15.40 -99.000   5.786   5.096   0.661 -99.000 -99.000 -99.000   5.757   5.096   0.661   0.000   0.000  488.97  387.97  300.20   87.77    0.00    0.00   0.544   0.070   0.011   0.014   0.008   0.004   0.003   0.002   0.002   0.003   0.510
 1981 274   110  19.90  24.60  15.60 -99.000   4.307   3.788   0.497 -99.000 -99.000 -99.000   4.285   3.788   0.497   0.000   0.000  493.28  392.25  303.99   88.27    0.00    0.00   0.404   0.055   0.009   0.011   0.007   0.003   0.003   0.002   0.001   0.003   0.379
 1981 275   111  20.10  25.70  14.60 -99.000   4.372   3.839   0.510 -99.000 -99.000 -99.000   4.350   3.839   0.510   0.000   0.000  497.65  396.60  307.82   88.78    0.00    0.00   0.426   0.050   0.008   0.010   0.006   0.003   0.002   0.002   0.001   0.003   0.384
 1981 276   112  21.80  25.50  13.90 -99.000   4.713   4.132   0.557 -99.000 -99.000 -99.000   4.689   4.132   0.557   0.000   0.000  502.36  401.29  311.96   89.33    0.00    0.00   0.122   0.072   0.022   0.044   0.049   0.034   0.038   0.032   0.036   0.109   0.413
 1981 277   113  25.00  26.50  13.30 -99.000   5.454   4.769   0.658 -99.000 -99.000 -99.000   5.427   4.769   0.658   0.000   0.000  507.82  406.72  316.73   89.99    0.00    0.00   0.153   0.090   0.028   0.049   0.055   0.037   0.043   0.037   0.041   0.124   0.477
 1981 278   114  27.30  27.80  13.40 -99.000   6.057   5.276   0.751 -99.000 -99.000 -99.000   6.027   5.276   0.751   0.000   0.000  513.87  412.74  322.00   90.74    0.00    0.00   0.153   0.105   0.035   0.060   0.064   0.042   0.051   0.044   0.049   0.148   0.528
 1981 279   115  26.30  27.40  12.90 -99.000   5.779   5.012   0.738 -99.000 -99.000 -99.000   5.750   5.012   0.738   0.000   0.000  519.65  418.49  327.01   91.48    0.00    0.00   0.141   0.102   0.034   0.061   0.064   0.041   0.052   0.045   0.050   0.150   0.501
 1981 280   116  26.80  27.70  13.00 -99.000   5.915   5.107   0.779 -99.000 -99.000 -99.000   5.886   5.107   0.779   0.000   0.000  525.57  424.38  332.12   92.26    0.00    0.00   0.649   0.080   0.013   0.013   0.008   0.004   0.003   0.002   0.002   0.004   0.511
 1981 281   117  27.40  27.70  12.50 -99.000   6.023   5.174   0.819 -99.000 -99.000 -99.000   5.993   5.174   0.819   0.000   0.000  531.59  430.37  337.30   93.08    0.00    0.00   0.675   0.089   0.014   0.014   0.010   0.004   0.004   0.003   0.002   0.005   0.517
 1981 282   118  25.80  27.60  13.10 -99.000   5.692   4.864   0.800 -99.000 -99.000 -99.000   5.664   4.864   0.800   0.000   0.000  537.28  436.04  342.16   93.88    0.00    0.00   0.649   0.092   0.015   0.014   0.010   0.004   0.004   0.003   0.003   0.005   0.486
 1981 283   119  21.30  25.40  14.50 -99.000   4.630   3.933   0.674 -99.000 -99.000 -99.000   4.607   3.933   0.674   0.000   0.000  541.91  440.64  346.09   94.55    0.00    0.00   0.542   0.080   0.013   0.012   0.009   0.004   0.004   0.003   0.002   0.005   0.393
 1981 284   120  17.70  24.50  15.10 -99.000   3.825   3.229   0.577 -99.000 -99.000 -99.000   3.807   3.229   0.577   0.000   0.000  545.74  444.45  349.32   95.13    0.00    0.00   0.459   0.071   0.012   0.011   0.009   0.003   0.004   0.003   0.002   0.004   0.323
 1981 285   121  23.80  26.90  13.90 -99.000   5.245   4.399   0.821 -99.000 -99.000 -99.000   5.095   4.384   0.711   0.000   0.000  550.98  449.54  353.71   95.84    0.00    0.00   0.559   0.091   0.015   0.014   0.011   0.004   0.005   0.003   0.003   0.006   0.438
 1981 286   122  24.60  27.40  13.50 -99.000   5.439   4.527   0.886 -99.000 -99.000 -99.000   5.182   4.527   0.655   0.000   0.000  556.42  454.73  358.23   96.49    0.00    0.00   0.508   0.088   0.015   0.014   0.010   0.003   0.005   0.003   0.003   0.006   0.453
 1981 287   123  24.60  26.50  13.50 -99.000   5.384   4.444   0.915 -99.000 -99.000 -99.000   5.048   4.444   0.604   0.000   0.000  561.81  459.77  362.68   97.10    0.00    0.00   0.462   0.085   0.014   0.013   0.010   0.003   0.005   0.003   0.003   0.006   0.444
 1981 288   124  24.70  27.30  12.40 -99.000   5.414   4.429   0.959 -99.000 -99.000 -99.000   4.986   4.429   0.557   0.000   0.000  567.22  464.76  367.11   97.66    0.00    0.00   0.420   0.083   0.014   0.013   0.009   0.003   0.005   0.003   0.003   0.006   0.443
 1981 289   125  25.40  26.90  12.30 -99.000   5.540   4.489   1.024 -99.000 -99.000 -99.000   5.004   4.489   0.515   0.000   0.000  572.76  469.77  371.59   98.17    0.00    0.00   0.382   0.081   0.013   0.012   0.008   0.003   0.005   0.003   0.003   0.006   0.449
 1981 290   126  22.90  25.50  12.70 -99.000   4.930   3.955   0.952 -99.000 -99.000 -99.000   4.432   3.955   0.477   0.000   0.000  577.69  474.20  375.55   98.65    0.00    0.00   0.347   0.079   0.013   0.012   0.006   0.003   0.005   0.003   0.003   0.006   0.395
 1981 291   127  26.20  26.40  11.90 -99.000   5.670   4.500   1.143 -99.000 -99.000 -99.000   2.493   2.053   0.441   0.000   0.000  583.36  476.69  377.60   99.09    0.00    0.00   0.316   0.076   0.013   0.011   0.006   0.003   0.005   0.003   0.003   0.006   0.205
 1981 292   128  24.10  26.00  12.30 -99.000   5.212   4.089   1.098 -99.000 -99.000 -99.000   1.904   1.496   0.409   0.000   0.000  588.57  478.59  379.10   99.50    0.00    0.00   0.287   0.074   0.012   0.011   0.006   0.003   0.005   0.003   0.003   0.006   0.150
 1981 293   129  26.70  26.60  12.00 -99.000   5.808   4.495   1.286 -99.000 -99.000 -99.000   1.564   1.184   0.380   0.000   0.000  594.38  480.16  380.28   99.88    0.00    0.00   0.261   0.072   0.012   0.011   0.005   0.003   0.005   0.003   0.003   0.006   0.118
 1981 294   130  26.40  26.40  12.50 -99.000   5.759   4.385   1.348 -99.000 -99.000 -99.000   1.335   0.981   0.354   0.000   0.000  600.14  481.49  381.26  100.23    0.00    0.00   0.237   0.070   0.012   0.011   0.005   0.003   0.005   0.003   0.003   0.006   0.098
 1981 295   131  22.60  25.60  12.30 -99.000   4.882   3.651   1.209 -99.000 -99.000 -99.000   1.167   0.836   0.331   0.000   0.000  605.02  482.66  382.10  100.56    0.00    0.00   0.215   0.069   0.012   0.010   0.005   0.003   0.005   0.003   0.003   0.006   0.084
 1981 296   132  24.40  25.60  12.30 -99.000   5.278   3.875   1.379 -99.000 -99.000 -99.000   1.015   0.706   0.310   0.000   0.000  610.30  483.67  382.80  100.87    0.00    0.00   0.196   0.068   0.011   0.010   0.005   0.003   0.005   0.003   0.003   0.006   0.071
 1981 297   133  25.50  26.20  11.20 -99.000   5.515   3.969   1.522 -99.000 -99.000 -99.000   0.848   0.557   0.291   0.000   0.000  615.81  484.52  383.36  101.16    0.00    0.00   0.178   0.067   0.011   0.010   0.005   0.002   0.005   0.003   0.003   0.006   0.056
 1981 298   134  26.50  26.80  10.80 -99.000   5.764   4.059   1.681 -99.000 -99.000 -99.000   0.666   0.392   0.274   0.000   0.000  621.58  485.19  383.75  101.44    0.00    0.00   0.162   0.067   0.011   0.010   0.005   0.002   0.005   0.003   0.003   0.006   0.039
 1981 299   135  25.90  26.00   9.80 -99.000   5.543   3.813   1.706 -99.000 -99.000 -99.000   0.436   0.177   0.258   0.000   0.000  627.12  485.62  383.93  101.70    0.00    0.00   0.147   0.066   0.011   0.010   0.005   0.002   0.005   0.003   0.003   0.006   0.018
 1981 300   136  26.90  26.70   9.30 -99.000   5.794   3.886   1.884 -99.000 -99.000 -99.000   0.375   0.130   0.245   0.000   0.000  632.92  486.00  384.06  101.94    0.00    0.00   0.134   0.066   0.011   0.010   0.005   0.002   0.005   0.003   0.003   0.006   0.013
 1981 301   137  24.40  26.50  10.40 -99.000   5.300   3.460   1.819 -99.000 -99.000 -99.000   0.352   0.120   0.232   0.000   0.000  638.22  486.35  384.18  102.17    0.00    0.00   0.122   0.066   0.011   0.010   0.005   0.002   0.005   0.003   0.003   0.006   0.012
 1981 302   138  22.20  26.40  12.00 -99.000   4.879   3.185   1.675 -99.000 -99.000 -99.000   0.332   0.112   0.220   0.000   0.000  643.10  486.68  384.29  102.39    0.00    0.00   0.110   0.065   0.011   0.010   0.005   0.002   0.005   0.003   0.003   0.006   0.011
 1981 303   139  25.30  28.60  12.70 -99.000   5.738   3.747   1.970 -99.000 -99.000 -99.000   0.314   0.104   0.210   0.000   0.000  648.83  487.00  384.40  102.60    0.00    0.00   0.100   0.065   0.011   0.010   0.005   0.002   0.005   0.003   0.003   0.006   0.010
 1981 304   140  25.20  28.70  12.30 -99.000   5.703   3.724   1.958 -99.000 -99.000 -99.000   0.298   0.098   0.200   0.000   0.000  654.54  487.30  384.49  102.80    0.00    0.00   0.091   0.065   0.011   0.010   0.005   0.002   0.005   0.003   0.003   0.006   0.010
 1981 305   141  25.50  27.90  11.30 -99.000   5.671   3.702   1.947 -99.000 -99.000 -99.000   0.283   0.092   0.192   0.000   0.000  660.21  487.58  384.58  102.99    0.00    0.00   0.083   0.064   0.011   0.010   0.005   0.002   0.005   0.003   0.003   0.006   0.009

*DSSAT Cropping System Model Ver. 4.7.5.008 -release  JAN 07, 2021 20:14:37

*RUN   2        : ERiMA DCC1                MZCER047 ETMZmelk    1
 MODEL          : MZCER047 - Maize
 EXPERIMENT     : ETMZmelk SN MELKSSAL
 DATA PATH      : C:\IRI\Python_Dash\ET_DSS_hist\TEST\
 TREATMENT  1   : ERiMA DCC1                MZCER047
  
!                                                                                                                                                                                        Soil evaporation (mm/d) by soil depth (cm):
!                                                                                                                                                                                        0-5    5-15   15-20   20-35   35-50   50-65   65-81   81-97  97-118 118-200
@YEAR DOY   DAS   SRAA  TMAXA  TMINA    REFA    EOAA    EOPA    EOSA    KCAA    KCBA    KEAA    ETAA    EPAA    ESAA    EFAA    EMAA    EOAC    ETAC    EPAC    ESAC    EFAC    EMAC    ES1D    ES2D    ES3D    ES4D    ES5D    ES6D    ES7D    ES8D    ES9D   ES10D   TRWUD
 1982 165     1  20.60  29.10  15.00 -99.000   5.391   0.000   5.391 -99.000 -99.000 -99.000   1.007   0.000   1.007   0.000   0.000    5.39    1.01    0.00    1.01    0.00    0.00   0.824   0.105   0.017   0.022   0.015   0.008   0.005   0.003   0.003   0.006   0.000
 1982 166     2  18.60  26.60  15.90 -99.000   4.742   0.000   4.742 -99.000 -99.000 -99.000   0.932   0.000   0.932   0.000   0.000   10.13    1.94    0.00    1.94    0.00    0.00   0.749   0.104   0.017   0.022   0.015   0.008   0.005   0.003   0.003   0.006   0.000
 1982 167     3  17.10  23.60  15.10 -99.000   4.164   0.000   4.164 -99.000 -99.000 -99.000   0.863   0.000   0.863   0.000   0.000   14.30    2.80    0.00    2.80    0.00    0.00   0.681   0.104   0.017   0.021   0.015   0.008   0.005   0.003   0.003   0.006   0.000
 1982 168     4  24.10  32.00  15.00 -99.000   6.444   0.000   6.444 -99.000 -99.000 -99.000   0.800   0.000   0.800   0.000   0.000   20.74    3.60    0.00    3.60    0.00    0.00   0.619   0.103   0.017   0.021   0.015   0.008   0.005   0.003   0.003   0.006   0.000
 1982 169     5  19.00  26.80  15.60 -99.000   4.796   0.000   4.796 -99.000 -99.000 -99.000   0.743   0.000   0.743   0.000   0.000   25.54    4.35    0.00    4.35    0.00    0.00   0.563   0.102   0.017   0.021   0.015   0.008   0.005   0.003   0.003   0.006   0.000
 1982 170     6  17.10  22.40  15.70 -99.000   4.086   0.000   4.086 -99.000 -99.000 -99.000   0.691   0.000   0.691   0.000   0.000   29.62    5.04    0.00    5.04    0.00    0.00   0.512   0.102   0.017   0.021   0.015   0.008   0.005   0.003   0.003   0.006   0.000
 1982 171     7  19.80  26.50  15.00 -99.000   4.930   0.000   4.930 -99.000 -99.000 -99.000   0.876   0.000   0.876   0.000   0.000   34.55    5.91    0.00    5.91    0.00    0.00   0.697   0.101   0.017   0.021   0.015   0.008   0.005   0.003   0.003   0.006   0.000
 1982 172     8  20.20  27.50  15.80 -99.000   5.233   0.000   5.233 -99.000 -99.000 -99.000   1.044   0.000   1.044   0.000   0.000   39.79    6.96    0.00    6.96    0.00    0.00   0.866   0.101   0.017   0.021   0.015   0.008   0.005   0.003   0.003   0.006   0.000
 1982 173     9  21.90  28.60  14.30 -99.000   5.654   0.013   5.642 -99.000 -99.000 -99.000   0.977   0.013   0.965   0.000   0.000   45.44    7.93    0.01    7.92    0.00    0.00   0.787   0.100   0.017   0.021   0.015   0.008   0.005   0.003   0.003   0.006   0.001
 1982 174    10  19.30  26.10  16.00 -99.000   4.884   0.022   4.862 -99.000 -99.000 -99.000   0.913   0.022   0.892   0.000   0.000   50.32    8.85    0.03    8.81    0.00    0.00   0.715   0.099   0.017   0.021   0.015   0.008   0.005   0.003   0.003   0.006   0.002
 1982 175    11  20.20  27.20  14.90 -99.000   5.113   0.034   5.079 -99.000 -99.000 -99.000   0.860   0.034   0.825   0.000   0.000   55.44    9.71    0.07    9.64    0.00    0.00   0.649   0.099   0.017   0.021   0.015   0.008   0.005   0.003   0.003   0.006   0.003
 1982 176    12  21.40  27.80  14.60 -99.000   5.423   0.050   5.372 -99.000 -99.000 -99.000   0.815   0.050   0.765   0.000   0.000   60.86   10.52    0.12   10.40    0.00    0.00   0.590   0.098   0.017   0.021   0.015   0.008   0.005   0.003   0.003   0.006   0.005
 1982 177    13  20.30  25.40  15.30 -99.000   5.011   0.061   4.951 -99.000 -99.000 -99.000   0.770   0.060   0.710   0.000   0.000   65.87   11.29    0.18   11.11    0.00    0.00   0.536   0.097   0.017   0.021   0.015   0.008   0.005   0.003   0.003   0.006   0.006
 1982 178    14  21.10  27.80  14.50 -99.000   5.304   0.112   5.192 -99.000 -99.000 -99.000   0.772   0.112   0.661   0.000   0.000   71.18   12.07    0.29   11.78    0.00    0.00   0.487   0.096   0.017   0.021   0.015   0.008   0.005   0.003   0.003   0.006   0.011
 1982 179    15  18.90  25.70  16.00 -99.000   4.672   0.144   4.527 -99.000 -99.000 -99.000   1.067   0.144   0.923   0.000   0.000   75.85   13.13    0.43   12.70    0.00    0.00   0.747   0.099   0.017   0.021   0.015   0.008   0.005   0.003   0.003   0.006   0.014
 1982 180    16  22.70  28.40  15.00 -99.000   5.903   0.238   5.663 -99.000 -99.000 -99.000   5.902   0.238   5.663   0.000   0.000   81.75   19.03    0.67   18.36    0.00    0.00   1.123   0.679   0.212   0.485   0.545   0.442   0.377   0.328   0.370   1.103   0.024
 1982 181    17  20.90  27.80  14.90 -99.000   5.400   0.296   5.102 -99.000 -99.000 -99.000   5.398   0.296   5.102   0.000   0.000   87.15   24.43    0.97   23.46    0.00    0.00   1.075   0.657   0.199   0.418   0.472   0.384   0.328   0.286   0.322   0.962   0.030
 1982 182    18  18.80  26.70  15.10 -99.000   4.821   0.338   4.482 -99.000 -99.000 -99.000   4.819   0.338   4.482   0.000   0.000   91.97   29.25    1.31   27.95    0.00    0.00   0.860   0.598   0.196   0.377   0.418   0.341   0.291   0.254   0.287   0.859   0.034
 1982 183    19  21.60  27.80  15.50 -99.000   5.551   0.475   5.073 -99.000 -99.000 -99.000   5.548   0.475   5.073   0.000   0.000   97.52   34.80    1.78   33.02    0.00    0.00   0.913   0.668   0.228   0.441   0.480   0.392   0.336   0.293   0.331   0.991   0.048
 1982 184    20  20.30  27.50  15.30 -99.000   5.150   0.535   4.612 -99.000 -99.000 -99.000   5.147   0.535   4.612   0.000   0.000  102.67   39.95    2.32   37.63    0.00    0.00   0.869   0.607   0.206   0.392   0.430   0.352   0.301   0.264   0.298   0.893   0.053
 1982 185    21  21.30  27.90  14.50 -99.000   5.429   0.669   4.756 -99.000 -99.000 -99.000   5.425   0.669   4.756   0.000   0.000  108.10   45.37    2.99   42.39    0.00    0.00   0.987   0.636   0.215   0.394   0.426   0.349   0.300   0.262   0.297   0.891   0.067
 1982 186    22  23.00  29.80  16.00 -99.000   6.054   0.874   5.176 -99.000 -99.000 -99.000   6.050   0.874   5.176   0.000   0.000  114.16   51.42    3.86   47.56    0.00    0.00   1.092   0.702   0.242   0.438   0.454   0.373   0.321   0.281   0.318   0.956   0.087
 1982 187    23  21.70  28.80  15.10 -99.000   5.581   0.948   4.628 -99.000 -99.000 -99.000   5.576   0.948   4.628   0.000   0.000  119.74   57.00    4.81   52.19    0.00    0.00   0.876   0.629   0.216   0.422   0.415   0.342   0.295   0.258   0.293   0.881   0.095
 1982 188    24  18.90  27.10  17.10 -99.000   4.775   0.954   3.816 -99.000 -99.000 -99.000   2.062   0.954   1.108   0.000   0.000  124.51   59.06    5.76   53.30    0.00    0.00   0.913   0.116   0.020   0.023   0.013   0.007   0.005   0.003   0.003   0.005   0.095
 1982 189    25  22.80  29.10  15.50 -99.000   5.766   1.327   4.432 -99.000 -99.000 -99.000   2.324   1.327   0.997   0.000   0.000  130.28   61.38    7.09   54.30    0.00    0.00   0.806   0.113   0.019   0.023   0.013   0.007   0.005   0.003   0.003   0.005   0.133
 1982 190    26  17.90  26.40  16.60 -99.000   4.384   1.157   3.221 -99.000 -99.000 -99.000   2.050   1.157   0.893   0.000   0.000  134.66   63.43    8.24   55.19    0.00    0.00   0.707   0.108   0.019   0.023   0.013   0.007   0.005   0.003   0.003   0.005   0.116
 1982 191    27  17.00  25.20  15.50 -99.000   4.039   1.193   2.839 -99.000 -99.000 -99.000   2.012   1.193   0.819   0.000   0.000  138.70   65.45    9.44   56.01    0.00    0.00   0.638   0.103   0.018   0.022   0.013   0.007   0.005   0.003   0.003   0.005   0.119
 1982 192    28  24.60  30.20  15.10 -99.000   6.133   1.995   4.127 -99.000 -99.000 -99.000   2.735   1.981   0.754   0.000   0.000  144.83   68.18   11.42   56.76    0.00    0.00   0.578   0.099   0.018   0.022   0.013   0.007   0.005   0.003   0.003   0.005   0.198
 1982 193    29  21.50  27.70  14.40 -99.000   5.142   1.865   3.266 -99.000 -99.000 -99.000   2.559   1.865   0.694   0.000   0.000  149.98   70.74   13.28   57.46    0.00    0.00   0.526   0.093   0.016   0.022   0.013   0.007   0.005   0.003   0.003   0.005   0.187
 1982 194    30  19.10  25.80  15.40 -99.000   4.474   1.767   2.697 -99.000 -99.000 -99.000   2.407   1.767   0.640   0.000   0.000  154.45   73.15   15.05   58.10    0.00    0.00   0.478   0.089   0.015   0.021   0.013   0.007   0.005   0.003   0.003   0.005   0.177
 1982 195    31  16.50  25.10  14.80 -99.000   3.793   1.608   2.176 -99.000 -99.000 -99.000   2.200   1.608   0.592   0.000   0.000  158.24   75.35   16.66   58.69    0.00    0.00   0.434   0.086   0.015   0.021   0.013   0.007   0.005   0.003   0.003   0.005   0.161
 1982 196    32  19.40  26.20  13.80 -99.000   4.458   2.028   2.419 -99.000 -99.000 -99.000   2.576   2.028   0.549   0.000   0.000  162.70   77.92   18.69   59.24    0.00    0.00   0.395   0.083   0.014   0.020   0.013   0.007   0.005   0.003   0.003   0.005   0.203
 1982 197    33  19.50  27.20  15.00 -99.000   4.558   2.182   2.363 -99.000 -99.000 -99.000   2.691   2.182   0.509   0.000   0.000  167.26   80.61   20.87   59.75    0.00    0.00   0.359   0.081   0.014   0.019   0.013   0.007   0.005   0.003   0.003   0.005   0.218
 1982 198    34  17.80  25.50  14.60 -99.000   4.046   2.049   1.985 -99.000 -99.000 -99.000   2.521   2.049   0.472   0.000   0.000  171.31   83.14   22.92   60.22    0.00    0.00   0.326   0.079   0.013   0.017   0.013   0.007   0.005   0.003   0.003   0.005   0.205
 1982 199    35  13.10  22.90  14.80 -99.000   2.874   1.554   1.311 -99.000 -99.000 -99.000   1.993   1.554   0.439   0.000   0.000  174.18   85.13   24.47   60.66    0.00    0.00   0.297   0.077   0.013   0.016   0.013   0.007   0.005   0.003   0.003   0.005   0.155
 1982 200    36  13.00  22.50  14.60 -99.000   2.822   1.601   1.210 -99.000 -99.000 -99.000   1.641   1.231   0.409   0.000   0.000  177.00   86.77   25.70   61.07    0.00    0.00   0.270   0.075   0.013   0.015   0.013   0.007   0.005   0.003   0.003   0.005   0.123
 1982 201    37  18.10  25.50  14.20 -99.000   4.054   2.342   1.699 -99.000 -99.000 -99.000   1.279   0.897   0.382   0.000   0.000  181.06   88.05   26.60   61.45    0.00    0.00   0.245   0.074   0.013   0.014   0.013   0.007   0.005   0.003   0.003   0.005   0.090
 1982 202    38  17.40  25.40  14.80 -99.000   3.911   2.245   1.653 -99.000 -99.000 -99.000   1.591   0.744   0.847   0.000   0.000  184.97   89.64   27.34   62.30    0.00    0.00   0.703   0.081   0.012   0.014   0.013   0.007   0.005   0.003   0.003   0.005   0.074
 1982 203    39  10.00  21.20  15.20 -99.000   2.189   1.244   0.937 -99.000 -99.000 -99.000   2.182   1.244   0.937   0.000   0.000  187.16   91.82   28.59   63.23    0.00    0.00   0.222   0.110   0.027   0.054   0.086   0.072   0.062   0.055   0.062   0.186   0.124
 1982 204    40  20.00  24.70  14.60 -99.000   4.544   2.676   1.852 -99.000 -99.000 -99.000   4.528   2.676   1.852   0.000   0.000  191.70   96.35   31.26   65.08    0.00    0.00   0.391   0.253   0.055   0.108   0.172   0.144   0.124   0.109   0.124   0.373   0.268
 1982 205    41  19.20  24.50  15.20 -99.000   4.329   2.672   1.641 -99.000 -99.000 -99.000   4.313   2.672   1.641   0.000   0.000  196.03  100.66   33.94   66.73    0.00    0.00   0.366   0.227   0.058   0.092   0.148   0.123   0.107   0.094   0.106   0.321   0.267
 1982 206    42  16.30  25.40  14.70 -99.000   3.700   2.383   1.303 -99.000 -99.000 -99.000   3.687   2.383   1.303   0.000   0.000  199.73  104.35   36.32   68.03    0.00    0.00   0.307   0.181   0.058   0.072   0.112   0.094   0.081   0.071   0.081   0.245   0.238
 1982 207    43  19.30  25.70  14.70 -99.000   4.376   2.929   1.430 -99.000 -99.000 -99.000   4.359   2.929   1.430   0.000   0.000  204.10  108.71   39.25   69.46    0.00    0.00   0.323   0.200   0.068   0.083   0.124   0.104   0.090   0.079   0.089   0.270   0.293
 1982 208    44  20.30  26.60  15.00 -99.000   4.636   3.214   1.404 -99.000 -99.000 -99.000   4.618   3.214   1.404   0.000   0.000  208.74  113.32   42.46   70.86    0.00    0.00   0.311   0.193   0.067   0.087   0.122   0.102   0.088   0.078   0.088   0.267   0.321
 1982 209    45  20.80  25.50  15.40 -99.000   4.683   3.355   1.309 -99.000 -99.000 -99.000   4.664   3.355   1.309   0.000   0.000  213.42  117.99   45.82   72.17    0.00    0.00   0.297   0.184   0.064   0.086   0.111   0.093   0.081   0.071   0.081   0.244   0.336
 1982 210    46  20.50  25.10  15.70 -99.000   4.595   3.387   1.189 -99.000 -99.000 -99.000   4.575   3.387   1.189   0.000   0.000  218.02  122.56   49.20   73.36    0.00    0.00   0.272   0.172   0.061   0.086   0.097   0.082   0.071   0.062   0.071   0.214   0.339
 1982 211    47  15.90  24.10  15.30 -99.000   3.498   2.645   0.837 -99.000 -99.000 -99.000   3.482   2.645   0.837   0.000   0.000  221.52  126.05   51.85   74.20    0.00    0.00   0.186   0.119   0.044   0.069   0.068   0.057   0.050   0.044   0.050   0.151   0.264
 1982 212    48  17.70  25.00  15.20 -99.000   3.919   3.025   0.877 -99.000 -99.000 -99.000   3.902   3.025   0.877   0.000   0.000  225.43  129.95   54.87   75.07    0.00    0.00   0.193   0.126   0.046   0.080   0.070   0.059   0.051   0.045   0.051   0.155   0.303
 1982 213    49  15.70  23.10  15.70 -99.000   3.404   2.681   0.707 -99.000 -99.000 -99.000   3.388   2.681   0.707   0.000   0.000  228.84  133.34   57.56   75.78    0.00    0.00   0.157   0.101   0.037   0.070   0.057   0.047   0.040   0.036   0.040   0.122   0.268
 1982 214    50  12.90  22.10  15.10 -99.000   2.743   2.195   0.535 -99.000 -99.000 -99.000   2.730   2.195   0.535   0.000   0.000  231.58  136.07   59.75   76.32    0.00    0.00   0.118   0.074   0.028   0.055   0.045   0.035   0.030   0.027   0.030   0.092   0.219
 1982 215    51  21.40  25.10  15.40 -99.000   4.723   3.826   0.876 -99.000 -99.000 -99.000   4.702   3.826   0.876   0.000   0.000  236.31  140.77   63.58   77.19    0.00    0.00   0.192   0.123   0.046   0.091   0.077   0.058   0.049   0.043   0.049   0.149   0.383
 1982 216    52  22.90  25.60  15.40 -99.000   5.071   4.176   0.871 -99.000 -99.000 -99.000   5.047   4.176   0.871   0.000   0.000  241.38  145.82   67.75   78.06    0.00    0.00   0.184   0.119   0.045   0.091   0.080   0.061   0.049   0.043   0.049   0.149   0.418
 1982 217    53  20.20  25.40  16.60 -99.000   4.484   3.793   0.670 -99.000 -99.000 -99.000   4.463   3.793   0.670   0.000   0.000  245.86  150.28   71.54   78.73    0.00    0.00   0.126   0.088   0.031   0.071   0.064   0.051   0.042   0.035   0.040   0.121   0.379
 1982 218    54  18.90  24.30  15.80 -99.000   4.101   3.515   0.566 -99.000 -99.000 -99.000   4.081   3.515   0.566   0.000   0.000  249.96  154.36   75.06   79.30    0.00    0.00   0.114   0.073   0.025   0.058   0.053   0.043   0.036   0.029   0.033   0.100   0.352
 1982 219    55  17.30  23.50  15.60 -99.000   3.714   3.214   0.480 -99.000 -99.000 -99.000   3.695   3.214   0.480   0.000   0.000  253.68  158.05   78.27   79.78    0.00    0.00   0.092   0.063   0.021   0.050   0.045   0.037   0.031   0.026   0.028   0.086   0.321
 1982 220    56  16.60  23.20  14.60 -99.000   3.512   3.063   0.431 -99.000 -99.000 -99.000   3.494   3.063   0.431   0.000   0.000  257.19  161.55   81.34   80.21    0.00    0.00   0.088   0.056   0.019   0.044   0.040   0.032   0.028   0.024   0.025   0.076   0.306
 1982 221    57  14.90  24.00  15.70 -99.000   3.214   2.821   0.376 -99.000 -99.000 -99.000   3.197   2.821   0.376   0.000   0.000  260.40  164.74   84.16   80.59    0.00    0.00   0.080   0.054   0.018   0.038   0.034   0.027   0.023   0.020   0.021   0.062   0.282
 1982 222    58  19.50  24.70  15.10 -99.000   4.218   3.722   0.474 -99.000 -99.000 -99.000   4.196   3.722   0.474   0.000   0.000  264.62  168.94   87.88   81.06    0.00    0.00   0.099   0.068   0.024   0.049   0.043   0.034   0.029   0.025   0.026   0.077   0.372
 1982 223    59  20.50  25.60  15.30 -99.000   4.485   3.982   0.480 -99.000 -99.000 -99.000   4.462   3.982   0.480   0.000   0.000  269.10  173.40   91.86   81.54    0.00    0.00   0.090   0.064   0.023   0.050   0.045   0.036   0.031   0.027   0.029   0.086   0.398
 1982 224    60  17.60  24.70  15.40 -99.000   3.804   3.397   0.388 -99.000 -99.000 -99.000   3.784   3.397   0.388   0.000   0.000  272.91  177.19   95.26   81.93    0.00    0.00   0.077   0.051   0.018   0.039   0.036   0.029   0.024   0.021   0.023   0.070   0.340
 1982 225    61  18.50  23.80  15.70 -99.000   3.967   3.558   0.388 -99.000 -99.000 -99.000   3.947   3.558   0.388   0.000   0.000  276.87  181.13   98.82   82.32    0.00    0.00   0.080   0.055   0.019   0.039   0.035   0.028   0.023   0.020   0.022   0.066   0.356
 1982 226    62  11.20  21.10  15.60 -99.000   2.320   2.088   0.219 -99.000 -99.000 -99.000   2.307   2.088   0.219   0.000   0.000  279.19  183.44  100.91   82.54    0.00    0.00   0.040   0.030   0.010   0.023   0.020   0.016   0.014   0.012   0.013   0.040   0.209
 1982 227    63  18.40  24.20  15.10 -99.000   3.939   3.552   0.366 -99.000 -99.000 -99.000   3.918   3.552   0.366   0.000   0.000  283.13  187.36  104.46   82.90    0.00    0.00   0.064   0.048   0.016   0.038   0.034   0.028   0.024   0.021   0.023   0.069   0.355
 1982 228    64  18.50  24.50  16.00 -99.000   4.000   3.617   0.362 -99.000 -99.000 -99.000   3.979   3.617   0.362   0.000   0.000  287.13  191.34  108.08   83.26    0.00    0.00   0.069   0.049   0.017   0.037   0.033   0.027   0.023   0.020   0.022   0.066   0.362
 1982 229    65  16.80  23.80  15.90 -99.000   3.603   3.265   0.318 -99.000 -99.000 -99.000   3.584   3.265   0.318   0.000   0.000  290.74  194.92  111.34   83.58    0.00    0.00   0.059   0.043   0.015   0.032   0.029   0.024   0.020   0.018   0.020   0.059   0.327
 1982 230    66  21.60  24.60  15.40 -99.000   4.652   4.224   0.404 -99.000 -99.000 -99.000   4.628   4.224   0.404   0.000   0.000  295.39  199.55  115.56   83.99    0.00    0.00   0.080   0.056   0.019   0.040   0.036   0.029   0.025   0.022   0.024   0.072   0.422
 1982 231    67  12.40  22.60  15.70 -99.000   2.615   2.378   0.223 -99.000 -99.000 -99.000   2.601   2.378   0.223   0.000   0.000  298.00  202.15  117.94   84.21    0.00    0.00   0.042   0.030   0.010   0.023   0.020   0.017   0.014   0.012   0.014   0.041   0.238
 1982 232    68  19.80  24.30  15.70 -99.000   4.258   3.875   0.361 -99.000 -99.000 -99.000   4.236   3.875   0.361   0.000   0.000  302.26  206.39  121.82   84.57    0.00    0.00   0.064   0.047   0.016   0.037   0.034   0.027   0.023   0.020   0.023   0.068   0.387
 1982 233    69  21.10  24.60  15.10 -99.000   4.530   4.127   0.379 -99.000 -99.000 -99.000   4.506   4.127   0.379   0.000   0.000  306.79  210.89  125.94   84.95    0.00    0.00   0.064   0.047   0.016   0.040   0.036   0.029   0.025   0.022   0.025   0.074   0.413
 1982 234    70  22.60  26.80  13.90 -99.000   4.931   4.499   0.407 -99.000 -99.000 -99.000   4.906   4.499   0.407   0.000   0.000  311.72  215.80  130.44   85.35    0.00    0.00   0.066   0.049   0.017   0.043   0.040   0.032   0.028   0.024   0.027   0.081   0.450
 1982 235    71  20.50  25.00  15.50 -99.000   4.432   4.049   0.360 -99.000 -99.000 -99.000   4.409   4.049   0.360   0.000   0.000  316.15  220.21  134.49   85.71    0.00    0.00   0.055   0.041   0.014   0.038   0.036   0.029   0.025   0.022   0.025   0.074   0.405
 1982 236    72  18.20  24.10  15.00 -99.000   3.875   3.544   0.310 -99.000 -99.000 -99.000   3.854   3.544   0.310   0.000   0.000  320.03  224.06  138.04   86.03    0.00    0.00   0.045   0.034   0.012   0.033   0.032   0.025   0.022   0.020   0.022   0.066   0.354
 1982 237    73  19.70  24.80  16.20 -99.000   4.271   3.901   0.349 -99.000 -99.000 -99.000   4.249   3.901   0.349   0.000   0.000  324.30  228.31  141.94   86.37    0.00    0.00   0.063   0.047   0.016   0.035   0.032   0.025   0.023   0.020   0.022   0.066   0.390
 1982 238    74  19.20  24.90  15.60 -99.000   4.159   3.792   0.345 -99.000 -99.000 -99.000   4.137   3.792   0.345   0.000   0.000  328.46  232.45  145.73   86.72    0.00    0.00   0.065   0.049   0.016   0.034   0.031   0.024   0.022   0.019   0.021   0.063   0.379
 1982 239    75  19.50  25.40  15.90 -99.000   4.256   3.875   0.359 -99.000 -99.000 -99.000   4.234   3.875   0.359   0.000   0.000  332.72  236.68  149.60   87.08    0.00    0.00   0.063   0.048   0.016   0.037   0.034   0.027   0.023   0.020   0.023   0.068   0.387
 1982 240    76  20.80  25.10  15.10 -99.000   4.493   4.085   0.384 -99.000 -99.000 -99.000   4.470   4.085   0.384   0.000   0.000  337.21  241.15  153.69   87.46    0.00    0.00   0.065   0.049   0.017   0.040   0.037   0.029   0.025   0.022   0.025   0.075   0.409
 1982 241    77  24.20  26.80  14.30 -99.000   5.301   4.813   0.460 -99.000 -99.000 -99.000   5.273   4.813   0.460   0.000   0.000  342.51  246.42  158.50   87.92    0.00    0.00   0.075   0.057   0.019   0.048   0.045   0.036   0.031   0.027   0.031   0.091   0.481
 1982 242    78  25.60  27.70  14.50 -99.000   5.675   5.148   0.498 -99.000 -99.000 -99.000   5.646   5.148   0.498   0.000   0.000  348.18  252.07  163.65   88.42    0.00    0.00   0.077   0.058   0.020   0.052   0.050   0.039   0.035   0.031   0.034   0.102   0.515
 1982 243    79  25.50  27.60  14.00 -99.000   5.623   5.096   0.498 -99.000 -99.000 -99.000   5.594   5.096   0.498   0.000   0.000  353.81  257.66  168.75   88.92    0.00    0.00   0.092   0.066   0.022   0.049   0.046   0.036   0.032   0.028   0.032   0.095   0.510
 1982 244    80  19.90  24.70  15.10 -99.000   4.288   3.882   0.383 -99.000 -99.000 -99.000   4.265   3.882   0.383   0.000   0.000  358.09  261.93  172.63   89.30    0.00    0.00   0.073   0.053   0.018   0.038   0.035   0.026   0.024   0.021   0.024   0.071   0.388
 1982 245    81  22.00  25.90  15.10 -99.000   4.803   4.347   0.432 -99.000 -99.000 -99.000   4.779   4.347   0.432   0.000   0.000  362.90  266.71  176.98   89.73    0.00    0.00   0.077   0.057   0.019   0.045   0.041   0.031   0.028   0.025   0.028   0.082   0.435
 1982 246    82  20.90  25.10  17.40 -99.000   4.601   4.163   0.415 -99.000 -99.000 -99.000   4.578   4.163   0.415   0.000   0.000  367.50  271.29  181.14   90.15    0.00    0.00   0.071   0.053   0.018   0.043   0.040   0.030   0.028   0.024   0.027   0.081   0.416
 1982 247    83  21.00  26.00  15.50 -99.000   4.602   4.163   0.416 -99.000 -99.000 -99.000   4.578   4.163   0.416   0.000   0.000  372.10  275.86  185.30   90.56    0.00    0.00   0.068   0.051   0.017   0.044   0.041   0.030   0.029   0.025   0.028   0.084   0.416
 1982 248    84  22.20  25.90  14.10 -99.000   4.804   4.345   0.434 -99.000 -99.000 -99.000   4.779   4.345   0.434   0.000   0.000  376.91  280.64  189.65   91.00    0.00    0.00   0.084   0.054   0.018   0.043   0.040   0.030   0.029   0.025   0.028   0.084   0.435
 1982 249    85  21.90  25.50  16.00 -99.000   4.798   4.341   0.433 -99.000 -99.000 -99.000   4.774   4.341   0.433   0.000   0.000  381.70  285.42  193.99   91.43    0.00    0.00   0.084   0.057   0.019   0.042   0.040   0.028   0.028   0.025   0.028   0.083   0.434
 1982 250    86  27.00  26.90  13.70 -99.000   5.900   5.337   0.533 -99.000 -99.000 -99.000   5.869   5.337   0.533   0.000   0.000  387.60  291.29  199.32   91.96    0.00    0.00   0.097   0.069   0.023   0.053   0.050   0.035   0.036   0.031   0.035   0.105   0.534
 1982 251    87  25.80  26.70  12.70 -99.000   5.577   5.044   0.504 -99.000 -99.000 -99.000   5.547   5.044   0.504   0.000   0.000  393.18  296.83  204.37   92.47    0.00    0.00   0.417   0.050   0.008   0.011   0.006   0.003   0.002   0.002   0.001   0.003   0.504
 1982 252    88  26.80  27.40  13.40 -99.000   5.871   5.311   0.530 -99.000 -99.000 -99.000   5.841   5.311   0.530   0.000   0.000  399.05  302.68  209.68   93.00    0.00    0.00   0.435   0.055   0.009   0.012   0.007   0.003   0.003   0.002   0.002   0.003   0.531
 1982 253    89  22.80  26.30  15.10 -99.000   4.995   4.518   0.451 -99.000 -99.000 -99.000   4.969   4.518   0.451   0.000   0.000  404.05  307.64  214.20   93.45    0.00    0.00   0.364   0.049   0.008   0.011   0.007   0.003   0.003   0.002   0.002   0.003   0.452
 1982 254    90  22.80  26.80  15.90 -99.000   5.055   4.573   0.456 -99.000 -99.000 -99.000   5.029   4.573   0.456   0.000   0.000  409.10  312.67  218.77   93.90    0.00    0.00   0.366   0.051   0.008   0.011   0.008   0.003   0.003   0.002   0.002   0.003   0.457
 1982 255    91  19.30  25.60  15.10 -99.000   4.191   3.791   0.378 -99.000 -99.000 -99.000   4.170   3.791   0.378   0.000   0.000  413.29  316.84  222.56   94.28    0.00    0.00   0.302   0.043   0.007   0.009   0.007   0.003   0.002   0.002   0.001   0.003   0.379
 1982 256    92  17.20  23.50  15.30 -99.000   3.647   3.299   0.329 -99.000 -99.000 -99.000   3.628   3.299   0.329   0.000   0.000  416.94  320.47  225.86   94.61    0.00    0.00   0.280   0.030   0.004   0.005   0.004   0.002   0.001   0.001   0.001   0.002   0.330
 1982 257    93  16.80  23.80  15.20 -99.000   3.584   3.241   0.324 -99.000 -99.000 -99.000   3.565   3.241   0.324   0.000   0.000  420.52  324.04  229.10   94.94    0.00    0.00   0.076   0.047   0.014   0.021   0.027   0.017   0.021   0.018   0.021   0.062   0.324
 1982 258    94  20.00  24.10  15.20 -99.000   4.282   3.873   0.387 -99.000 -99.000 -99.000   4.259   3.873   0.387   0.000   0.000  424.81  328.30  232.97   95.32    0.00    0.00   0.078   0.057   0.019   0.031   0.033   0.020   0.026   0.023   0.025   0.076   0.387
 1982 259    95  16.90  23.60  14.60 -99.000   3.575   3.233   0.323 -99.000 -99.000 -99.000   3.556   3.233   0.323   0.000   0.000  428.38  331.85  236.21   95.64    0.00    0.00   0.061   0.045   0.015   0.029   0.028   0.017   0.022   0.019   0.022   0.065   0.323
 1982 260    96  25.20  26.70  13.50 -99.000   5.483   4.959   0.495 -99.000 -99.000 -99.000   5.454   4.959   0.495   0.000   0.000  433.86  337.31  241.17   96.14    0.00    0.00   0.095   0.068   0.023   0.044   0.043   0.025   0.034   0.030   0.033   0.100   0.496
 1982 261    97  27.80  28.10  12.90 -99.000   6.122   5.538   0.553 -99.000 -99.000 -99.000   6.090   5.538   0.553   0.000   0.000  439.99  343.40  246.70   96.69    0.00    0.00   0.105   0.075   0.025   0.048   0.048   0.028   0.039   0.034   0.038   0.114   0.554
 1982 262    98  21.70  25.70  13.70 -99.000   4.673   4.222   0.426 -99.000 -99.000 -99.000   4.648   4.222   0.426   0.000   0.000  444.66  348.04  250.93   97.12    0.00    0.00   0.082   0.057   0.018   0.035   0.037   0.021   0.030   0.027   0.030   0.089   0.422
 1982 263    99  20.50  26.10  15.00 -99.000   4.484   4.048   0.413 -99.000 -99.000 -99.000   4.461   4.048   0.413   0.000   0.000  449.14  352.50  254.97   97.53    0.00    0.00   0.080   0.055   0.017   0.032   0.036   0.020   0.030   0.026   0.029   0.087   0.405
 1982 264   100  23.70  27.80  16.40 -99.000   5.345   4.821   0.498 -99.000 -99.000 -99.000   5.319   4.821   0.498   0.000   0.000  454.49  357.82  259.79   98.03    0.00    0.00   0.420   0.048   0.007   0.008   0.005   0.002   0.002   0.002   0.001   0.003   0.482
 1982 265   101  21.20  26.20  15.80 -99.000   4.670   4.205   0.441 -99.000 -99.000 -99.000   4.646   4.205   0.441   0.000   0.000  459.16  362.47  264.00   98.47    0.00    0.00   0.369   0.044   0.007   0.007   0.005   0.002   0.002   0.001   0.001   0.002   0.421
 1982 266   102  23.20  27.50  13.70 -99.000   5.103   4.588   0.489 -99.000 -99.000 -99.000   5.077   4.588   0.489   0.000   0.000  464.26  367.55  268.59   98.96    0.00    0.00   0.403   0.052   0.008   0.008   0.006   0.002   0.003   0.002   0.002   0.003   0.459
 1982 267   103  27.50  28.70  12.10 -99.000   6.058   5.437   0.590 -99.000 -99.000 -99.000   6.027   5.437   0.590   0.000   0.000  470.32  373.57  274.02   99.55    0.00    0.00   0.482   0.065   0.011   0.010   0.008   0.003   0.004   0.002   0.002   0.004   0.544
 1982 268   104  27.30  29.10  12.50 -99.000   6.060   5.430   0.599 -99.000 -99.000 -99.000   6.030   5.430   0.599   0.000   0.000  476.38  379.60  279.45  100.15    0.00    0.00   0.485   0.068   0.011   0.010   0.009   0.003   0.004   0.003   0.002   0.004   0.543
 1982 269   105  20.90  26.60  15.00 -99.000   4.594   4.109   0.462 -99.000 -99.000 -99.000   4.533   4.071   0.462   0.000   0.000  480.97  384.14  283.53  100.61    0.00    0.00   0.371   0.054   0.009   0.008   0.007   0.002   0.003   0.002   0.002   0.004   0.407
 1982 270   106  21.90  27.10  15.30 -99.000   4.854   4.333   0.497 -99.000 -99.000 -99.000   4.830   4.333   0.497   0.000   0.000  485.83  388.97  287.86  101.11    0.00    0.00   0.396   0.060   0.010   0.009   0.007   0.002   0.004   0.003   0.002   0.004   0.433
 1982 271   107  19.40  25.90  15.20 -99.000   4.237   3.773   0.443 -99.000 -99.000 -99.000   4.215   3.773   0.443   0.000   0.000  490.06  393.18  291.63  101.55    0.00    0.00   0.350   0.056   0.009   0.008   0.006   0.002   0.004   0.002   0.002   0.004   0.377
 1982 272   108  25.50  27.70  13.50 -99.000   5.614   4.986   0.599 -99.000 -99.000 -99.000   4.359   3.782   0.577   0.000   0.000  495.68  397.54  295.41  102.13    0.00    0.00   0.451   0.075   0.013   0.011   0.007   0.003   0.005   0.003   0.003   0.006   0.378
 1982 273   109  23.30  28.90  13.00 -99.000   5.182   4.589   0.568 -99.000 -99.000 -99.000   2.135   1.603   0.533   0.000   0.000  500.86  399.68  297.02  102.66    0.00    0.00   0.410   0.073   0.012   0.011   0.006   0.003   0.005   0.003   0.003   0.006   0.160
 1982 274   110  25.70  28.10  12.80 -99.000   5.659   4.964   0.667 -99.000 -99.000 -99.000   1.728   1.235   0.493   0.000   0.000  506.52  401.40  298.25  103.15    0.00    0.00   0.373   0.072   0.012   0.011   0.006   0.003   0.005   0.003   0.003   0.006   0.123
 1982 275   111  23.90  27.60  13.30 -99.000   5.258   4.560   0.671 -99.000 -99.000 -99.000   1.467   1.010   0.457   0.000   0.000  511.78  402.87  299.26  103.61    0.00    0.00   0.339   0.070   0.012   0.011   0.006   0.003   0.005   0.003   0.003   0.006   0.101
 1982 276   112  23.40  28.20  13.10 -99.000   5.182   4.440   0.717 -99.000 -99.000 -99.000   1.279   0.855   0.424   0.000   0.000  516.96  404.15  300.12  104.04    0.00    0.00   0.308   0.069   0.012   0.010   0.006   0.003   0.005   0.003   0.003   0.006   0.085
 1982 277   113  25.80  28.60  12.20 -99.000   5.707   4.824   0.855 -99.000 -99.000 -99.000   1.097   0.702   0.395   0.000   0.000  522.67  405.25  300.82  104.43    0.00    0.00   0.280   0.068   0.011   0.010   0.006   0.003   0.005   0.003   0.003   0.006   0.070
 1982 278   114  26.20  29.20  13.30 -99.000   5.894   4.910   0.957 -99.000 -99.000 -99.000   0.936   0.568   0.368   0.000   0.000  528.56  406.18  301.39  104.80    0.00    0.00   0.255   0.067   0.011   0.010   0.005   0.003   0.005   0.003   0.003   0.006   0.057
 1982 279   115  25.00  28.70  13.40 -99.000   5.604   4.592   0.986 -99.000 -99.000 -99.000   0.697   0.353   0.344   0.000   0.000  534.16  406.88  301.74  105.14    0.00    0.00   0.232   0.067   0.011   0.010   0.005   0.003   0.005   0.003   0.003   0.006   0.035
 1982 280   116  16.20  21.10  12.90 -99.000   3.301   2.657   0.627 -99.000 -99.000 -99.000   0.612   0.289   0.323   0.000   0.000  537.46  407.49  302.03  105.46    0.00    0.00   0.210   0.066   0.011   0.010   0.005   0.003   0.005   0.003   0.003   0.006   0.029
 1982 281   117  22.90  25.60  12.50 -99.000   4.927   3.896   1.008 -99.000 -99.000 -99.000   1.172   0.265   0.908   0.000   0.000  542.39  408.66  302.29  106.37    0.00    0.00   0.755   0.103   0.015   0.010   0.005   0.003   0.005   0.003   0.003   0.006   0.026
 1982 282   118  25.30  26.20  12.90 -99.000   5.580   4.325   1.229 -99.000 -99.000 -99.000   5.554   4.325   1.229   0.000   0.000  547.97  414.22  306.62  107.60    0.00    0.00   0.279   0.199   0.064   0.064   0.049   0.036   0.093   0.081   0.091   0.273   0.433
 1982 283   119  26.80  27.90  12.30 -99.000   5.984   4.632   1.325 -99.000 -99.000 -99.000   5.755   4.632   1.123   0.000   0.000  553.95  419.97  311.25  108.72    0.00    0.00   0.953   0.115   0.018   0.013   0.005   0.003   0.005   0.003   0.003   0.006   0.463
 1982 284   120  23.80  27.10  12.60 -99.000   5.266   4.069   1.173 -99.000 -99.000 -99.000   4.990   4.069   0.922   0.000   0.000  559.22  424.96  315.32  109.65    0.00    0.00   0.767   0.102   0.016   0.013   0.005   0.003   0.005   0.003   0.003   0.006   0.407
 1982 285   121  22.90  26.30  13.40 -99.000   5.044   3.887   1.134 -99.000 -99.000 -99.000   4.441   3.670   0.771   0.000   0.000  564.26  429.41  318.99  110.42    0.00    0.00   0.633   0.087   0.015   0.012   0.005   0.003   0.005   0.003   0.003   0.006   0.367
 1982 286   122  22.20  24.50  13.50 -99.000   4.785   3.676   1.087 -99.000 -99.000 -99.000   2.547   1.464   1.083   0.000   0.000  569.05  431.95  320.45  111.50    0.00    0.00   0.934   0.100   0.013   0.012   0.005   0.003   0.005   0.003   0.003   0.006   0.146
 1982 287   123  23.90  26.90  13.00 -99.000   5.335   4.044   1.267 -99.000 -99.000 -99.000   5.311   4.044   1.267   0.000   0.000  574.38  437.26  324.50  112.77    0.00    0.00   0.294   0.199   0.047   0.067   0.050   0.037   0.098   0.086   0.097   0.290   0.404
 1982 288   124  21.10  24.10  14.00 -99.000   4.575   3.454   1.100 -99.000 -99.000 -99.000   4.529   3.454   1.076   0.000   0.000  578.96  441.79  327.95  113.84    0.00    0.00   0.920   0.105   0.015   0.011   0.005   0.003   0.005   0.003   0.003   0.006   0.345
 1982 289   125  21.50  22.90  13.40 -99.000   4.562   3.428   1.112 -99.000 -99.000 -99.000   4.312   3.428   0.883   0.000   0.000  583.52  446.10  331.38  114.73    0.00    0.00   0.741   0.093   0.015   0.011   0.005   0.003   0.005   0.003   0.003   0.006   0.343
 1982 290   126  22.50  24.40  12.80 -99.000   4.832   3.614   1.196 -99.000 -99.000 -99.000   2.352   1.640   0.712   0.000   0.000  588.35  448.46  333.02  115.44    0.00    0.00   0.581   0.083   0.014   0.011   0.005   0.003   0.005   0.003   0.003   0.006   0.164
 1982 291   127  26.40  26.10  12.30 -99.000   5.768   4.263   1.480 -99.000 -99.000 -99.000   1.681   1.028   0.654   0.000   0.000  594.12  450.14  334.05  116.09    0.00    0.00   0.528   0.078   0.013   0.011   0.005   0.003   0.005   0.003   0.003   0.006   0.103
 1982 292   128  27.10  27.00  12.80 -99.000   6.017   4.366   1.626 -99.000 -99.000 -99.000   1.400   0.798   0.602   0.000   0.000  600.14  451.54  334.84  116.69    0.00    0.00   0.480   0.075   0.012   0.010   0.005   0.002   0.005   0.003   0.003   0.006   0.080
 1982 293   129  27.20  27.20  11.80 -99.000   6.014   4.274   1.714 -99.000 -99.000 -99.000   1.223   0.667   0.556   0.000   0.000  606.15  452.76  335.51  117.25    0.00    0.00   0.437   0.073   0.012   0.010   0.005   0.002   0.005   0.003   0.003   0.006   0.067
 1982 294   130  27.30  28.20  12.80 -99.000   6.166   4.288   1.853 -99.000 -99.000 -99.000   1.091   0.577   0.514   0.000   0.000  612.32  453.85  336.09  117.76    0.00    0.00   0.397   0.071   0.012   0.010   0.005   0.002   0.005   0.003   0.003   0.006   0.058
 1982 295   131  27.00  28.30  12.40 -99.000   6.096   4.142   1.930 -99.000 -99.000 -99.000   0.920   0.444   0.476   0.000   0.000  618.41  454.77  336.53  118.24    0.00    0.00   0.361   0.070   0.012   0.010   0.005   0.002   0.005   0.003   0.003   0.006   0.044
 1982 296   132  25.00  27.50  14.10 -99.000   5.675   3.764   1.890 -99.000 -99.000 -99.000   0.727   0.285   0.442   0.000   0.000  624.09  455.50  336.82  118.68    0.00    0.00   0.328   0.069   0.012   0.010   0.005   0.002   0.005   0.003   0.003   0.006   0.029
 1982 297   133  25.30  27.70  13.00 -99.000   5.717   3.694   2.002 -99.000 -99.000 -99.000   0.569   0.158   0.411   0.000   0.000  629.81  456.07  336.98  119.09    0.00    0.00   0.298   0.068   0.011   0.010   0.005   0.002   0.005   0.003   0.003   0.006   0.016
 1982 298   134  25.40  28.20  12.80 -99.000   5.775   3.630   2.124 -99.000 -99.000 -99.000   0.504   0.121   0.383   0.000   0.000  635.58  456.57  337.10  119.48    0.00    0.00   0.271   0.067   0.011   0.010   0.005   0.002   0.005   0.003   0.003   0.006   0.012
 1982 299   135  23.50  27.20  13.00 -99.000   5.298   3.234   2.045 -99.000 -99.000 -99.000   0.438   0.080   0.358   0.000   0.000  640.88  457.01  337.18  119.83    0.00    0.00   0.246   0.067   0.011   0.010   0.005   0.002   0.005   0.003   0.003   0.006   0.008
 1982 300   136  25.00  27.40  12.90 -99.000   5.656   3.350   2.286 -99.000 -99.000 -99.000   0.396   0.061   0.335   0.000   0.000  646.53  457.41  337.24  120.17    0.00    0.00   0.224   0.066   0.011   0.010   0.005   0.002   0.005   0.003   0.003   0.006   0.006
 1982 301   137  24.50  27.30  13.00 -99.000   5.551   3.187   2.345 -99.000 -99.000 -99.000   0.373   0.059   0.314   0.000   0.000  652.09  457.78  337.30  120.48    0.00    0.00   0.204   0.066   0.011   0.010   0.005   0.002   0.005   0.003   0.003   0.006   0.006
 1982 302   138  24.20  27.30  12.50 -99.000   5.459   3.134   2.306 -99.000 -99.000 -99.000   0.352   0.057   0.295   0.000   0.000  657.54  458.13  337.35  120.78    0.00    0.00   0.185   0.066   0.011   0.010   0.005   0.002   0.005   0.003   0.003   0.006   0.006
 1982 303   139  23.10  25.80  14.00 -99.000   5.177   2.972   2.188 -99.000 -99.000 -99.000   0.333   0.055   0.278   0.000   0.000  662.72  458.46  337.41  121.06    0.00    0.00   0.168   0.065   0.011   0.010   0.005   0.002   0.005   0.003   0.003   0.006   0.005
 1982 304   140  24.50  26.10  13.50 -99.000   5.487   3.150   2.318 -99.000 -99.000 -99.000   0.315   0.053   0.262   0.000   0.000  668.21  458.78  337.46  121.32    0.00    0.00   0.153   0.065   0.011   0.010   0.005   0.002   0.005   0.003   0.003   0.006   0.005
 1982 305   141  26.50  27.80  13.10 -99.000   6.035   3.465   2.550 -99.000 -99.000 -99.000   0.299   0.051   0.248   0.000   0.000  674.24  459.08  337.51  121.57    0.00    0.00   0.139   0.065   0.011   0.010   0.005   0.002   0.005   0.003   0.003   0.006   0.005

*DSSAT Cropping System Model Ver. 4.7.5.008 -release  JAN 07, 2021 20:14:37

*RUN   3        : ERiMA DCC1                MZCER047 ETMZmelk    1
 MODEL          : MZCER047 - Maize
 EXPERIMENT     : ETMZmelk SN MELKSSAL
 DATA PATH      : C:\IRI\Python_Dash\ET_DSS_hist\TEST\
 TREATMENT  1   : ERiMA DCC1                MZCER047
  
!                                                                                                                                                                                        Soil evaporation (mm/d) by soil depth (cm):
!                                                                                                                                                                                        0-5    5-15   15-20   20-35   35-50   50-65   65-81   81-97  97-118 118-200
@YEAR DOY   DAS   SRAA  TMAXA  TMINA    REFA    EOAA    EOPA    EOSA    KCAA    KCBA    KEAA    ETAA    EPAA    ESAA    EFAA    EMAA    EOAC    ETAC    EPAC    ESAC    EFAC    EMAC    ES1D    ES2D    ES3D    ES4D    ES5D    ES6D    ES7D    ES8D    ES9D   ES10D   TRWUD
 1983 165     1  24.60  32.20  15.60 -99.000   6.695   0.000   6.695 -99.000 -99.000 -99.000   1.007   0.000   1.007   0.000   0.000    6.70    1.01    0.00    1.01    0.00    0.00   0.824   0.105   0.017   0.022   0.015   0.008   0.005   0.003   0.003   0.006   0.000
 1983 166     2  22.50  31.80  15.60 -99.000   6.072   0.000   6.072 -99.000 -99.000 -99.000   0.932   0.000   0.932   0.000   0.000   12.77    1.94    0.00    1.94    0.00    0.00   0.749   0.104   0.017   0.022   0.015   0.008   0.005   0.003   0.003   0.006   0.000
 1983 167     3  21.60  31.20  15.60 -99.000   5.769   0.000   5.769 -99.000 -99.000 -99.000   0.863   0.000   0.863   0.000   0.000   18.54    2.80    0.00    2.80    0.00    0.00   0.681   0.104   0.017   0.021   0.015   0.008   0.005   0.003   0.003   0.006   0.000
[...]
 2014 224    60  15.20  26.00  15.20 -99.000   3.333   2.988   0.329 -99.000 -99.000 -99.000   3.317   2.988   0.329   0.000   0.000  253.68  173.95   93.36   80.59    0.00    0.00   0.076   0.049   0.017   0.019   0.020   0.023   0.021   0.019   0.021   0.063   0.299
 2014 225    61  17.80  25.00  16.50 -99.000   3.896   3.504   0.372 -99.000 -99.000 -99.000   3.876   3.504   0.372   0.000   0.000  257.58  177.82   96.86   80.96    0.00    0.00   0.076   0.054   0.019   0.028   0.023   0.027   0.025   0.022   0.025   0.074   0.350
 2014 226    62  20.20  25.10  16.00 -99.000   4.402   3.972   0.407 -99.000 -99.000 -99.000   4.379   3.972   0.407   0.000   0.000  261.98  182.20  100.83   81.37    0.00    0.00   0.077   0.057   0.020   0.034   0.026   0.030   0.028   0.024   0.028   0.082   0.397
 2014 227    63  15.10  25.50  16.20 -99.000   3.308   2.996   0.295 -99.000 -99.000 -99.000   3.291   2.996   0.295   0.000   0.000  265.29  185.49  103.83   81.66    0.00    0.00   0.062   0.041   0.014   0.024   0.018   0.021   0.020   0.017   0.020   0.058   0.300
 2014 228    64  14.40  25.40  16.50 -99.000   3.162   2.871   0.275 -99.000 -99.000 -99.000   3.146   2.871   0.275   0.000   0.000  268.45  188.64  106.70   81.94    0.00    0.00   0.063   0.040   0.014   0.023   0.015   0.019   0.018   0.015   0.017   0.051   0.287
 2014 229    65  16.40  25.20  15.70 -99.000   3.569   3.246   0.304 -99.000 -99.000 -99.000   3.551   3.246   0.304   0.000   0.000  272.02  192.19  109.95   82.24    0.00    0.00   0.061   0.043   0.015   0.030   0.017   0.021   0.020   0.017   0.020   0.059   0.325
 2014 230    66  19.60  26.00  16.20 -99.000   4.317   3.936   0.359 -99.000 -99.000 -99.000   4.295   3.936   0.359   0.000   0.000  276.34  196.49  113.88   82.60    0.00    0.00   0.067   0.050   0.017   0.039   0.021   0.026   0.024   0.021   0.024   0.071   0.394
 2014 231    67  18.00  26.70  15.90 -99.000   3.985   3.643   0.322 -99.000 -99.000 -99.000   3.965   3.643   0.322   0.000   0.000  280.32  200.45  117.53   82.92    0.00    0.00   0.066   0.044   0.015   0.034   0.018   0.022   0.021   0.018   0.021   0.062   0.364
 2014 232    68  16.90  26.80  16.70 -99.000   3.773   3.457   0.297 -99.000 -99.000 -99.000   3.754   3.457   0.297   0.000   0.000  284.10  204.20  120.98   83.22    0.00    0.00   0.059   0.041   0.014   0.032   0.017   0.020   0.020   0.017   0.019   0.058   0.346
 2014 233    69  20.30  27.10  17.20 -99.000   4.562   4.174   0.366 -99.000 -99.000 -99.000   4.540   4.174   0.366   0.000   0.000  288.66  208.74  125.16   83.59    0.00    0.00   0.078   0.050   0.017   0.038   0.022   0.024   0.024   0.021   0.023   0.070   0.417
 2014 234    70  15.20  26.20  15.60 -99.000   3.342   3.054   0.271 -99.000 -99.000 -99.000   3.325   3.054   0.271   0.000   0.000  292.00  212.07  128.21   83.86    0.00    0.00   0.061   0.038   0.013   0.028   0.016   0.017   0.017   0.015   0.017   0.050   0.305
 2014 235    71  16.90  27.40  15.00 -99.000   3.752   3.426   0.307 -99.000 -99.000 -99.000   3.733   3.426   0.307   0.000   0.000  295.75  215.80  131.64   84.16    0.00    0.00   0.068   0.044   0.016   0.032   0.019   0.019   0.019   0.016   0.018   0.055   0.343
 2014 236    72  20.10  27.60  15.50 -99.000   4.490   4.098   0.370 -99.000 -99.000 -99.000   4.468   4.098   0.370   0.000   0.000  300.24  220.27  135.74   84.53    0.00    0.00   0.080   0.056   0.020   0.039   0.026   0.022   0.022   0.019   0.022   0.065   0.410
 2014 237    73  18.70  27.50  16.50 -99.000   4.205   3.835   0.350 -99.000 -99.000 -99.000   4.184   3.835   0.350   0.000   0.000  304.45  224.45  139.57   84.88    0.00    0.00   0.066   0.049   0.017   0.037   0.030   0.023   0.022   0.019   0.022   0.064   0.383
 2014 238    74  16.60  23.90  16.80 -99.000   3.584   3.264   0.301 -99.000 -99.000 -99.000   3.565   3.264   0.301   0.000   0.000  308.03  228.02  142.83   85.18    0.00    0.00   0.053   0.040   0.014   0.032   0.028   0.021   0.019   0.017   0.019   0.057   0.326
 2014 239    75  21.90  27.20  15.40 -99.000   4.861   4.425   0.411 -99.000 -99.000 -99.000   4.836   4.425   0.411   0.000   0.000  312.89  232.86  147.26   85.60    0.00    0.00   0.338   0.043   0.007   0.010   0.005   0.003   0.002   0.001   0.001   0.002   0.442
 2014 240    76  18.20  27.20  16.30 -99.000   4.067   3.699   0.347 -99.000 -99.000 -99.000   4.047   3.699   0.347   0.000   0.000  316.96  236.90  150.96   85.94    0.00    0.00   0.067   0.046   0.016   0.035   0.032   0.024   0.022   0.019   0.022   0.064   0.370
 2014 241    77  17.80  24.30  16.70 -99.000   3.864   3.511   0.333 -99.000 -99.000 -99.000   3.844   3.511   0.333   0.000   0.000  320.82  240.75  154.47   86.28    0.00    0.00   0.064   0.045   0.015   0.034   0.031   0.023   0.021   0.018   0.021   0.062   0.351
 2014 242    78  19.30  26.00  17.00 -99.000   4.280   3.887   0.372 -99.000 -99.000 -99.000   4.259   3.887   0.372   0.000   0.000  325.10  245.00  158.36   86.65    0.00    0.00   0.074   0.053   0.018   0.038   0.034   0.026   0.023   0.019   0.022   0.066   0.389
 2014 243    79  17.30  26.30  16.50 -99.000   3.840   3.484   0.337 -99.000 -99.000 -99.000   3.820   3.484   0.337   0.000   0.000  328.94  248.82  161.84   86.98    0.00    0.00   0.069   0.050   0.017   0.035   0.030   0.023   0.020   0.017   0.019   0.056   0.348
 2014 244    80  17.80  25.10  16.10 -99.000   3.884   3.520   0.344 -99.000 -99.000 -99.000   3.864   3.520   0.344   0.000   0.000  332.83  252.69  165.36   87.33    0.00    0.00   0.064   0.047   0.016   0.036   0.032   0.026   0.022   0.019   0.021   0.062   0.352
 2014 245    81  16.60  24.20  14.90 -99.000   3.545   3.210   0.316 -99.000 -99.000 -99.000   3.526   3.210   0.316   0.000   0.000  336.37  256.21  168.57   87.64    0.00    0.00   0.055   0.042   0.014   0.033   0.030   0.024   0.020   0.018   0.020   0.059   0.321
 2014 246    82  20.70  25.60  14.30 -99.000   4.475   4.037   0.415 -99.000 -99.000 -99.000   4.452   4.037   0.415   0.000   0.000  340.85  260.67  172.61   88.06    0.00    0.00   0.071   0.054   0.018   0.044   0.039   0.032   0.027   0.024   0.027   0.079   0.404
 2014 247    83  19.20  25.40  15.80 -99.000   4.190   3.779   0.389 -99.000 -99.000 -99.000   4.168   3.779   0.389   0.000   0.000  345.04  264.84  176.39   88.45    0.00    0.00   0.064   0.049   0.017   0.041   0.037   0.030   0.026   0.023   0.026   0.076   0.378
 2014 248    84  21.00  25.20  16.90 -99.000   4.611   4.157   0.430 -99.000 -99.000 -99.000   4.588   4.157   0.430   0.000   0.000  349.65  269.42  180.54   88.88    0.00    0.00   0.082   0.056   0.019   0.043   0.039   0.031   0.028   0.024   0.027   0.080   0.416
 2014 249    85  21.20  24.40  16.60 -99.000   4.609   4.154   0.432 -99.000 -99.000 -99.000   4.586   4.154   0.432   0.000   0.000  354.26  274.01  184.70   89.31    0.00    0.00   0.082   0.057   0.019   0.044   0.039   0.032   0.028   0.024   0.027   0.080   0.415
 2014 250    86  20.10  26.10  15.40 -99.000   4.412   3.974   0.416 -99.000 -99.000 -99.000   4.390   3.974   0.416   0.000   0.000  358.67  278.40  188.67   89.73    0.00    0.00   0.074   0.054   0.018   0.043   0.039   0.031   0.027   0.024   0.027   0.079   0.397
 2014 251    87  22.20  26.20  15.30 -99.000   4.874   4.387   0.462 -99.000 -99.000 -99.000   4.849   4.387   0.462   0.000   0.000  363.54  283.25  193.06   90.19    0.00    0.00   0.091   0.060   0.020   0.046   0.041   0.033   0.030   0.026   0.029   0.086   0.439
 2014 252    88  22.10  25.70  15.90 -99.000   4.854   4.367   0.463 -99.000 -99.000 -99.000   4.829   4.367   0.463   0.000   0.000  368.40  288.08  197.43   90.65    0.00    0.00   0.089   0.060   0.020   0.047   0.042   0.033   0.030   0.026   0.029   0.087   0.437
 2014 253    89  20.20  26.80  14.70 -99.000   4.448   3.998   0.427 -99.000 -99.000 -99.000   4.425   3.998   0.427   0.000   0.000  372.84  292.50  201.42   91.08    0.00    0.00   0.087   0.055   0.019   0.043   0.038   0.029   0.027   0.024   0.026   0.079   0.400
 2014 254    90  20.50  26.00  15.10 -99.000   4.491   4.034   0.434 -99.000 -99.000 -99.000   4.468   4.034   0.434   0.000   0.000  377.34  296.97  205.46   91.51    0.00    0.00   0.084   0.057   0.019   0.044   0.040   0.030   0.028   0.024   0.027   0.081   0.403
 2014 255    91  17.90  25.20  15.50 -99.000   3.893   3.493   0.380 -99.000 -99.000 -99.000   3.873   3.493   0.380   0.000   0.000  381.23  300.84  208.95   91.89    0.00    0.00   0.077   0.051   0.017   0.038   0.034   0.025   0.024   0.021   0.023   0.069   0.349
 2014 256    92  21.70  26.10  15.60 -99.000   4.780   4.286   0.470 -99.000 -99.000 -99.000   4.756   4.286   0.470   0.000   0.000  386.01  305.60  213.24   92.36    0.00    0.00   0.100   0.067   0.024   0.047   0.041   0.030   0.028   0.024   0.027   0.082   0.429
 2014 257    93  19.20  25.80  14.50 -99.000   4.179   3.742   0.415 -99.000 -99.000 -99.000   4.157   3.742   0.415   0.000   0.000  390.19  309.76  216.98   92.78    0.00    0.00   0.078   0.057   0.020   0.043   0.038   0.029   0.026   0.023   0.026   0.076   0.374
 2014 258    94  19.40  26.80  14.40 -99.000   4.265   3.815   0.428 -99.000 -99.000 -99.000   4.243   3.815   0.428   0.000   0.000  394.45  314.00  220.79   93.21    0.00    0.00   0.076   0.057   0.019   0.044   0.040   0.032   0.028   0.024   0.027   0.081   0.382
 2014 259    95  17.70  26.30  14.90 -99.000   3.883   3.469   0.394 -99.000 -99.000 -99.000   3.863   3.469   0.394   0.000   0.000  398.34  317.86  224.26   93.60    0.00    0.00   0.324   0.041   0.007   0.009   0.005   0.003   0.002   0.001   0.001   0.002   0.347
 2014 260    96  22.20  27.30  15.20 -99.000   4.938   4.406   0.508 -99.000 -99.000 -99.000   4.914   4.406   0.508   0.000   0.000  403.27  322.78  228.67   94.11    0.00    0.00   0.415   0.054   0.009   0.012   0.007   0.004   0.002   0.002   0.001   0.003   0.441
 2014 261    97  22.80  26.40  15.30 -99.000   5.021   4.473   0.523 -99.000 -99.000 -99.000   4.996   4.473   0.523   0.000   0.000  408.30  327.77  233.14   94.63    0.00    0.00   0.424   0.057   0.010   0.013   0.007   0.004   0.003   0.002   0.002   0.003   0.447
 2014 262    98  18.00  25.70  16.20 -99.000   3.959   3.520   0.419 -99.000 -99.000 -99.000   3.939   3.521   0.419   0.000   0.000  412.25  331.71  236.66   95.05    0.00    0.00   0.335   0.048   0.008   0.011   0.006   0.003   0.002   0.002   0.001   0.003   0.352
 2014 263    99  18.00  26.40  16.60 -99.000   4.004   3.554   0.430 -99.000 -99.000 -99.000   3.985   3.554   0.430   0.000   0.000  416.26  335.70  240.22   95.48    0.00    0.00   0.078   0.061   0.021   0.043   0.038   0.029   0.028   0.024   0.027   0.082   0.355
 2014 264   100  21.90  25.80  16.40 -99.000   4.848   4.294   0.530 -99.000 -99.000 -99.000   4.824   4.294   0.530   0.000   0.000  421.11  340.52  244.51   96.01    0.00    0.00   0.114   0.078   0.028   0.052   0.044   0.032   0.031   0.027   0.031   0.092   0.429
 2014 265   101  23.70  25.30  16.70 -99.000   5.228   4.621   0.582 -99.000 -99.000 -99.000   5.203   4.621   0.582   0.000   0.000  426.33  345.72  249.13   96.59    0.00    0.00   0.110   0.079   0.028   0.060   0.053   0.040   0.037   0.032   0.036   0.107   0.462
 2014 266   102  21.80  25.30  16.20 -99.000   4.786   4.219   0.543 -99.000 -99.000 -99.000   4.762   4.219   0.543   0.000   0.000  431.12  350.48  253.35   97.13    0.00    0.00   0.108   0.072   0.025   0.055   0.049   0.039   0.034   0.029   0.033   0.099   0.422
 2014 267   103  20.30  25.80  16.30 -99.000   4.493   3.951   0.520 -99.000 -99.000 -99.000   4.471   3.951   0.520   0.000   0.000  435.61  354.95  257.30   97.65    0.00    0.00   0.098   0.068   0.023   0.053   0.048   0.038   0.033   0.029   0.033   0.097   0.395
 2014 268   104  18.30  27.70  15.80 -99.000   4.122   3.615   0.487 -99.000 -99.000 -99.000   4.102   3.615   0.487   0.000   0.000  439.73  359.06  260.92   98.14    0.00    0.00   0.097   0.063   0.022   0.049   0.044   0.035   0.031   0.027   0.030   0.090   0.361
 2014 269   105  19.20  24.40  17.00 -99.000   4.207   3.676   0.509 -99.000 -99.000 -99.000   4.186   3.676   0.509   0.000   0.000  443.94  363.24  264.59   98.65    0.00    0.00   0.096   0.067   0.023   0.052   0.047   0.037   0.033   0.028   0.032   0.095   0.368
 2014 270   106  17.70  27.30  14.80 -99.000   3.941   3.433   0.488 -99.000 -99.000 -99.000   3.922   3.433   0.488   0.000   0.000  447.88  367.16  268.03   99.14    0.00    0.00   0.099   0.064   0.022   0.049   0.044   0.034   0.031   0.027   0.030   0.089   0.343
 2014 271   107  20.80  26.80  15.20 -99.000   4.629   4.018   0.588 -99.000 -99.000 -99.000   4.606   4.018   0.588   0.000   0.000  452.51  371.77  272.04   99.73    0.00    0.00   0.113   0.077   0.026   0.060   0.054   0.042   0.037   0.033   0.037   0.110   0.402
 2014 272   108  17.90  26.80  14.80 -99.000   3.967   3.430   0.518 -99.000 -99.000 -99.000   3.948   3.430   0.518   0.000   0.000  456.48  375.72  275.47  100.25    0.00    0.00   0.106   0.068   0.023   0.052   0.046   0.036   0.032   0.028   0.032   0.095   0.343
 2014 273   109  20.30  27.80  16.10 -99.000   4.608   3.968   0.619 -99.000 -99.000 -99.000   4.587   3.968   0.619   0.000   0.000  461.09  380.30  279.44  100.86    0.00    0.00   0.119   0.081   0.028   0.063   0.057   0.044   0.039   0.034   0.039   0.115   0.397
 2014 274   110  20.10  27.00  15.60 -99.000   4.499   3.854   0.623 -99.000 -99.000 -99.000   4.478   3.854   0.623   0.000   0.000  465.58  384.78  283.30  101.49    0.00    0.00   0.112   0.082   0.028   0.064   0.058   0.045   0.041   0.035   0.040   0.119   0.385
 2014 275   111  23.50  24.20  15.10 -99.000   5.068   4.318   0.725 -99.000 -99.000 -99.000   5.043   4.318   0.725   0.000   0.000  470.65  389.83  287.61  102.21    0.00    0.00   0.599   0.074   0.012   0.016   0.009   0.005   0.003   0.002   0.002   0.004   0.432
 2014 276   112  20.60  26.10  14.20 -99.000   4.513   3.826   0.664 -99.000 -99.000 -99.000   4.491   3.826   0.664   0.000   0.000  475.17  394.32  291.44  102.88    0.00    0.00   0.129   0.091   0.031   0.066   0.058   0.045   0.042   0.037   0.042   0.124   0.383
 2014 277   113  22.40  26.10  14.70 -99.000   4.946   4.170   0.752 -99.000 -99.000 -99.000   4.922   4.170   0.752   0.000   0.000  480.11  399.24  295.61  103.63    0.00    0.00   0.161   0.111   0.038   0.075   0.063   0.047   0.044   0.039   0.044   0.130   0.417
 2014 278   114  22.00  24.90  15.40 -99.000   4.820   4.039   0.758 -99.000 -99.000 -99.000   4.796   4.039   0.758   0.000   0.000  484.93  404.03  299.65  104.39    0.00    0.00   0.142   0.106   0.036   0.078   0.069   0.052   0.047   0.041   0.046   0.138   0.404
 2014 279   115  25.20  25.90  16.30 -99.000   5.621   4.680   0.915 -99.000 -99.000 -99.000   5.595   4.680   0.915   0.000   0.000  490.55  409.63  304.33  105.30    0.00    0.00   0.162   0.122   0.041   0.095   0.085   0.069   0.059   0.051   0.058   0.173   0.468
 2014 280   116  18.80  27.50  13.90 -99.000   4.194   3.465   0.710 -99.000 -99.000 -99.000   4.175   3.465   0.710   0.000   0.000  494.75  413.80  307.79  106.01    0.00    0.00   0.138   0.098   0.034   0.071   0.063   0.051   0.044   0.038   0.043   0.129   0.347
 2014 281   117  20.50  26.60  15.20 -99.000   4.591   3.762   0.808 -99.000 -99.000 -99.000   4.570   3.762   0.808   0.000   0.000  499.34  418.37  311.56  106.82    0.00    0.00   0.171   0.116   0.042   0.080   0.070   0.055   0.048   0.041   0.047   0.139   0.376
 2014 282   118  21.00  27.30  14.70 -99.000   4.729   3.841   0.867 -99.000 -99.000 -99.000   4.708   3.841   0.867   0.000   0.000  504.07  423.08  315.40  107.69    0.00    0.00   0.181   0.124   0.045   0.088   0.076   0.060   0.051   0.044   0.050   0.148   0.384
 2014 283   119  21.50  27.50  15.80 -99.000   4.902   3.941   0.939 -99.000 -99.000 -99.000   4.880   3.941   0.939   0.000   0.000  508.97  427.96  319.34  108.62    0.00    0.00   0.195   0.133   0.048   0.096   0.083   0.066   0.056   0.048   0.054   0.159   0.394
 2014 284   120  20.00  28.00  15.70 -99.000   4.591   3.648   0.922 -99.000 -99.000 -99.000   4.571   3.648   0.922   0.000   0.000  513.56  432.53  322.99  109.55    0.00    0.00   0.172   0.125   0.043   0.095   0.085   0.068   0.058   0.051   0.057   0.168   0.365
 2014 285   121  22.80  26.60  16.50 -99.000   5.177   4.061   1.094 -99.000 -99.000 -99.000   5.155   4.061   1.094   0.000   0.000  518.74  437.69  327.05  110.64    0.00    0.00   0.193   0.144   0.049   0.114   0.102   0.082   0.071   0.062   0.069   0.207   0.406
 2014 286   122  22.70  27.90  16.40 -99.000   5.233   4.047   1.164 -99.000 -99.000 -99.000   5.211   4.047   1.164   0.000   0.000  523.97  442.90  331.09  111.80    0.00    0.00   0.200   0.151   0.052   0.120   0.109   0.088   0.077   0.067   0.075   0.225   0.405
 2014 287   123  19.40  28.20  16.60 -99.000   4.501   3.424   1.058 -99.000 -99.000 -99.000   4.483   3.424   1.058   0.000   0.000  528.47  447.38  334.52  112.86    0.00    0.00   0.177   0.135   0.047   0.108   0.099   0.080   0.072   0.062   0.070   0.209   0.342
 2014 288   124  23.40  27.40  15.60 -99.000   5.347   3.991   1.334 -99.000 -99.000 -99.000   5.325   3.991   1.334   0.000   0.000  533.82  452.71  338.51  114.20    0.00    0.00   0.217   0.168   0.058   0.135   0.124   0.100   0.092   0.080   0.090   0.268   0.399
 2014 289   125  24.10  27.00  13.80 -99.000   5.414   3.961   1.431 -99.000 -99.000 -99.000   5.392   3.961   1.431   0.000   0.000  539.23  458.10  342.47  115.63    0.00    0.00   0.226   0.177   0.062   0.143   0.133   0.107   0.101   0.088   0.099   0.295   0.396
 2014 290   126  22.90  28.50  13.20 -99.000   5.220   3.742   1.457 -99.000 -99.000 -99.000   4.680   3.742   0.939   0.000   0.000  544.45  462.78  346.21  116.57    0.00    0.00   0.760   0.102   0.017   0.023   0.013   0.007   0.005   0.003   0.003   0.006   0.374
 2014 291   127  24.70  29.10  14.20 -99.000   5.721   4.005   1.694 -99.000 -99.000 -99.000   4.857   4.005   0.852   0.000   0.000  550.17  467.64  350.22  117.42    0.00    0.00   0.679   0.098   0.017   0.022   0.013   0.007   0.005   0.003   0.003   0.006   0.401
 2014 292   128  22.70  26.90  15.50 -99.000   5.187   3.529   1.638 -99.000 -99.000 -99.000   5.167   3.529   1.638   0.000   0.000  555.36  472.80  353.75  119.06    0.00    0.00   0.302   0.218   0.072   0.147   0.138   0.110   0.113   0.098   0.111   0.330   0.353
 2014 293   129  22.10  27.90  15.70 -99.000   5.197   3.427   1.751 -99.000 -99.000 -99.000   5.178   3.427   1.751   0.000   0.000  560.56  477.98  357.17  120.81    0.00    0.00   0.351   0.244   0.081   0.160   0.137   0.110   0.116   0.101   0.114   0.339   0.343
 2014 294   130  20.20  27.50  15.40 -99.000   4.695   3.096   1.582 -99.000 -99.000 -99.000   4.678   3.096   1.582   0.000   0.000  565.25  482.66  360.27  122.39    0.00    0.00   0.295   0.218   0.073   0.155   0.124   0.099   0.107   0.094   0.105   0.314   0.310
 2014 295   131  19.90  27.80  13.90 -99.000   4.580   3.019   1.543 -99.000 -99.000 -99.000   4.153   3.019   1.133   0.000   0.000  569.83  486.81  363.29  123.52    0.00    0.00   0.938   0.119   0.019   0.023   0.011   0.006   0.005   0.003   0.003   0.006   0.302
 2014 296   132  21.50  28.30  14.00 -99.000   4.971   3.278   1.675 -99.000 -99.000 -99.000   4.299   3.278   1.022   0.000   0.000  574.80  491.11  366.57  124.54    0.00    0.00   0.831   0.115   0.019   0.023   0.011   0.006   0.005   0.003   0.003   0.006   0.328
 2014 297   133  22.60  28.00  14.60 -99.000   5.222   3.443   1.760 -99.000 -99.000 -99.000   4.361   3.443   0.918   0.000   0.000  580.03  495.47  370.01  125.46    0.00    0.00   0.732   0.111   0.018   0.022   0.011   0.006   0.005   0.003   0.003   0.006   0.344
