*INFO DETAIL FILE

******************************************************************************

*DSSAT Cropping System Model Ver. 4.7.5.008 -release  JAN 07, 2021 20:33:24

*RUN   1        : ERiMA DCC1                MZCER047 ETMZmelk    1
 MODEL          : MZCER047 - Maize
 EXPERIMENT     : ETMZmelk SN MELKSSAL
 DATA PATH      : C:\IRI\Python_Dash\ET_DSS_hist\TEST\
 TREATMENT  1   : ERiMA DCC1                MZCER047
  

 CSM     YEAR DOY = 1981 165
 RNMODE = B                                                                    
 PATHEX = C:\IRI\Python_Dash\ET_DSS_hist\TEST\                                 
 FILEX  = ETMZmelk.SNX                                                         
 FILEB  = DSSBatch.v47                                                         
 FILEIO = DSSAT47.INP                                                          
 MODEL  = MZCER047                                                             
 TRTNUM =     1                                                                

 SOILDYN  YEAR DOY = 1981 165
 The soil file has missing or invalid data.                                    
 Default values have been used for these variables:                            
   STONES, ADCOEF                                                              
 These defaults may or may not be important to your results.                   

 RETC  YEAR DOY = 1981 165
 Soil RETC parameters:                                                         
  LYR DS  SWCN   WCR    Hb Lambd  Alpha     m     n Texture                    
   1   5  1.32 0.038   0.6 0.145  0.027 0.171 1.207 Loam                       
   2  15  1.32 0.038   0.6 0.145  0.027 0.171 1.207 Loam                       
   3  20  1.32 0.038   0.6 0.145  0.027 0.171 1.207 Loam                       
   4  35  1.32 0.028   3.6 0.244  0.012 0.235 1.308 Loam                       
   5  50  0.23 0.046   8.9 0.336  0.006 0.285 1.399 ClayLoam                   
   6  65  0.23 0.046   8.9 0.336  0.006 0.285 1.399 ClayLoam                   
   7  81  0.23 0.051   5.5 0.292  0.009 0.262 1.355 ClayLoam                   
   8  97  0.23 0.051   5.5 0.292  0.009 0.262 1.355 ClayLoam                   
   9 118  1.32 0.036   5.2 0.212  0.010 0.202 1.254 Loam                       
  10 140  1.32 0.036   5.2 0.212  0.010 0.202 1.254 Loam                       
  11 170  1.32 0.037   4.1 0.193  0.011 0.190 1.234 Loam                       
  12 200  0.23 0.066   5.6 0.220  0.009 0.207 1.261 ClayLoam                   

 SOILDYN  YEAR DOY = 1981 165
 Soil ID: ETET001_18                                                           
   ET000_18                                                                    
 VITRIC ANDOSOLS                                                               
   SALB SWCON    CN  DMOD  SLPF SMPX                                           
   0.13  0.60  81.0  1.00  0.70 IB00                                           
 Soil layer distribution method: 2                                             
      DS DLAYR    LL   DUL   SAT  Root    BD    OC  CLAY  SILT  SAND           
 LYR  cm    cm  frac  frac  frac  Grow g/cm3     %     %     %     %    pH     
   1   5     5 0.166 0.260 0.433 1.000  1.20  1.50  22.0  36.0  42.0   7.9     
   2  15    10 0.166 0.260 0.433 1.000  1.20  1.50  22.0  36.0  42.0   7.9     
   3  20     5 0.166 0.260 0.433 1.000  1.20  1.50  22.0  36.0  42.0   7.9     
   4  35    15 0.121 0.264 0.434 0.577  1.20  1.48  24.0  36.0  40.0   8.0     
   5  50    15 0.121 0.316 0.466 0.100  1.10  1.46  36.0  38.0  26.0   8.3     
   6  65    15 0.121 0.316 0.466 0.100  1.10  1.46  36.0  38.0  26.0   8.3     
   7  81    16 0.134 0.304 0.477 0.000  1.00  1.40  28.0  44.0  28.0   8.5     
   8  97    16 0.134 0.304 0.477 0.000  1.00  1.40  28.0  44.0  28.0   8.5     
   9 118    21 0.156 0.305 0.433 0.000  1.28  0.98  25.0  45.0  30.0   8.6     
  10 140    22 0.156 0.305 0.433 0.000  1.28  0.98  25.0  45.0  30.0   8.6     
  11 170    30 0.162 0.298 0.428 0.000  1.36  0.78  26.0  38.0  36.0   8.5     
  12 200    30 0.173 0.314 0.433 0.000  1.33  0.78  28.0  40.0  32.0   8.3     

 SOILDYN  YEAR DOY = 1981 165
 Additional soil properties                                                    
                Convert                                                        
    Cation Adsrp  ppm /  KSAT  SLCF  TOTN  OrgN                                
   L  Exch  Coef  kg/ha  cm/h     %     % kg/ha                                
   1  25.4   0.0   1.67   1.3   0.0  0.14   831                                
   2  25.4   0.0   0.83   1.3   0.0  0.14  1662                                
   3  25.4   0.0   1.67   1.3   0.0  0.14   831                                
   4  27.4   0.0   0.56   1.3   0.0  0.11  1976                                
   5  36.0   0.0   0.61   0.2   0.0  0.10  1650                                
   6  36.0   0.0   0.61   0.2   0.0  0.10  1650                                
   7  30.2   0.0   0.62   0.2   0.0  0.08  1280                                
   8  30.2   0.0   0.62   0.2   0.0  0.08  1280                                
   9  33.2   0.0   0.37   1.3   0.0  0.06  1613                                
  10  33.2   0.0   0.36   1.3   0.0  0.06  1689                                
  11  28.2   0.0   0.25   1.3   0.0  0.06  2448                                
  12  39.2   0.0   0.25   0.2   0.0  0.05  1995                                

 IPWTH   YEAR DOY = 1981 165
 MELK8101.WTH                                                                  
 Found daily weather data headers for:                                         
   SRAD           Col   7 -  11                                                
   TMAX           Col  13 -  17                                                
   TMIN           Col  19 -  23                                                
   RAIN           Col  25 -  29                                                
   DEWP           Col  31 -  35                                                
   WIND           Col  37 -  41                                                
   PAR            Col  43 -  47                                                
   RHUM           Col  55 -  59                                                

 ENDRUN  YEAR DOY = 1981 272
 Normal end of run        1                                                    

******************************************************************************

*DSSAT Cropping System Model Ver. 4.7.5.008 -release  JAN 07, 2021 20:33:24

*RUN   2        : ERiMA DCC1                MZCER047 ETMZmelk    1
 MODEL          : MZCER047 - Maize
 EXPERIMENT     : ETMZmelk SN MELKSSAL
 DATA PATH      : C:\IRI\Python_Dash\ET_DSS_hist\TEST\
 TREATMENT  1   : ERiMA DCC1                MZCER047
  

 IPWTH   YEAR DOY = 1982 165
 MELK8201.WTH                                                                  
 Found daily weather data headers for:                                         
   SRAD           Col   7 -  11                                                
   TMAX           Col  13 -  17                                                
   TMIN           Col  19 -  23                                                
   RAIN           Col  25 -  29                                                
   DEWP           Col  31 -  35                                                
   WIND           Col  37 -  41                                                
   PAR            Col  43 -  47                                                
   RHUM           Col  55 -  59                                                

 ENDRUN  YEAR DOY = 1982 272
 Normal end of run        2                                                    

******************************************************************************

*DSSAT Cropping System Model Ver. 4.7.5.008 -release  JAN 07, 2021 20:33:24

*RUN   3        : ERiMA DCC1                MZCER047 ETMZmelk    1
 MODEL          : MZCER047 - Maize
 EXPERIMENT     : ETMZmelk SN MELKSSAL
 DATA PATH      : C:\IRI\Python_Dash\ET_DSS_hist\TEST\
 TREATMENT  1   : ERiMA DCC1                MZCER047
  

 IPWTH   YEAR DOY = 1983 165
 MELK8301.WTH                                                                  
 Found daily weather data headers for:                                         
   SRAD           Col   7 -  11                                                
   TMAX           Col  13 -  17                                                
   TMIN           Col  19 -  23                                                
   RAIN           Col  25 -  29                                                
   DEWP           Col  31 -  35                                                
   WIND           Col  37 -  41                                                
   PAR            Col  43 -  47                                                
   RHUM           Col  55 -  59                                                

 ENDRUN  YEAR DOY = 1983 267
 Normal end of run        3                                                    

******************************************************************************

*DSSAT Cropping System Model Ver. 4.7.5.008 -release  JAN 07, 2021 20:33:24

*RUN   4        : ERiMA DCC1                MZCER047 ETMZmelk    1
 MODEL          : MZCER047 - Maize
 EXPERIMENT     : ETMZmelk SN MELKSSAL
 DATA PATH      : C:\IRI\Python_Dash\ET_DSS_hist\TEST\
 TREATMENT  1   : ERiMA DCC1                MZCER047
  

 IPWTH   YEAR DOY = 1984 165
 MELK8401.WTH                                                                  
 Found daily weather data headers for:                                         
   SRAD           Col   7 -  11                                                
   TMAX           Col  13 -  17                                                
   TMIN           Col  19 -  23                                                
   RAIN           Col  25 -  29                                                
   DEWP           Col  31 -  35                                                
   WIND           Col  37 -  41                                                
   PAR            Col  43 -  47                                                
   RHUM           Col  55 -  59                                                

 ENDRUN  YEAR DOY = 1984 272
 Normal end of run        4                                                    

******************************************************************************

*DSSAT Cropping System Model Ver. 4.7.5.008 -release  JAN 07, 2021 20:33:24

*RUN   5        : ERiMA DCC1                MZCER047 ETMZmelk    1
 MODEL          : MZCER047 - Maize
 EXPERIMENT     : ETMZmelk SN MELKSSAL
 DATA PATH      : C:\IRI\Python_Dash\ET_DSS_hist\TEST\
 TREATMENT  1   : ERiMA DCC1                MZCER047
  

 IPWTH   YEAR DOY = 1985 165
 MELK8501.WTH                                                                  
 Found daily weather data headers for:                                         
   SRAD           Col   7 -  11                                                
   TMAX           Col  13 -  17                                                
   TMIN           Col  19 -  23                                                
   RAIN           Col  25 -  29                                                
   DEWP           Col  31 -  35                                                
   WIND           Col  37 -  41                                                
   PAR            Col  43 -  47                                                
   RHUM           Col  55 -  59                                                

 ENDRUN  YEAR DOY = 1985 277
 Normal end of run        5                                                    

******************************************************************************

*DSSAT Cropping System Model Ver. 4.7.5.008 -release  JAN 07, 2021 20:33:24

*RUN   6        : ERiMA DCC1                MZCER047 ETMZmelk    1
 MODEL          : MZCER047 - Maize
 EXPERIMENT     : ETMZmelk SN MELKSSAL
 DATA PATH      : C:\IRI\Python_Dash\ET_DSS_hist\TEST\
 TREATMENT  1   : ERiMA DCC1                MZCER047
  

 IPWTH   YEAR DOY = 1986 165
 MELK8601.WTH                                                                  
 Found daily weather data headers for:                                         
   SRAD           Col   7 -  11                                                
   TMAX           Col  13 -  17                                                
   TMIN           Col  19 -  23                                                
   RAIN           Col  25 -  29                                                
   DEWP           Col  31 -  35                                                
   WIND           Col  37 -  41                                                
   PAR            Col  43 -  47                                                
   RHUM           Col  55 -  59                                                

 ENDRUN  YEAR DOY = 1986 276
 Normal end of run        6                                                    

******************************************************************************

*DSSAT Cropping System Model Ver. 4.7.5.008 -release  JAN 07, 2021 20:33:24

*RUN   7        : ERiMA DCC1                MZCER047 ETMZmelk    1
 MODEL          : MZCER047 - Maize
 EXPERIMENT     : ETMZmelk SN MELKSSAL
 DATA PATH      : C:\IRI\Python_Dash\ET_DSS_hist\TEST\
 TREATMENT  1   : ERiMA DCC1                MZCER047
  

 IPWTH   YEAR DOY = 1987 165
 MELK8701.WTH                                                                  
 Found daily weather data headers for:                                         
   SRAD           Col   7 -  11                                                
   TMAX           Col  13 -  17                                                
   TMIN           Col  19 -  23                                                
   RAIN           Col  25 -  29                                                
   DEWP           Col  31 -  35                                                
   WIND           Col  37 -  41                                                
   PAR            Col  43 -  47                                                
   RHUM           Col  55 -  59                                                

 ENDRUN  YEAR DOY = 1987 264
 Normal end of run        7                                                    

******************************************************************************

*DSSAT Cropping System Model Ver. 4.7.5.008 -release  JAN 07, 2021 20:33:24

*RUN   8        : ERiMA DCC1                MZCER047 ETMZmelk    1
 MODEL          : MZCER047 - Maize
 EXPERIMENT     : ETMZmelk SN MELKSSAL
 DATA PATH      : C:\IRI\Python_Dash\ET_DSS_hist\TEST\
 TREATMENT  1   : ERiMA DCC1                MZCER047
  

 IPWTH   YEAR DOY = 1988 165
 MELK8801.WTH                                                                  
 Found daily weather data headers for:                                         
   SRAD           Col   7 -  11                                                
   TMAX           Col  13 -  17                                                
   TMIN           Col  19 -  23                                                
   RAIN           Col  25 -  29                                                
   DEWP           Col  31 -  35                                                
   WIND           Col  37 -  41                                                
   PAR            Col  43 -  47                                                
   RHUM           Col  55 -  59                                                

 ENDRUN  YEAR DOY = 1988 270
 Normal end of run        8                                                    

******************************************************************************

*DSSAT Cropping System Model Ver. 4.7.5.008 -release  JAN 07, 2021 20:33:24

*RUN   9        : ERiMA DCC1                MZCER047 ETMZmelk    1
 MODEL          : MZCER047 - Maize
 EXPERIMENT     : ETMZmelk SN MELKSSAL
 DATA PATH      : C:\IRI\Python_Dash\ET_DSS_hist\TEST\
 TREATMENT  1   : ERiMA DCC1                MZCER047
  

 IPWTH   YEAR DOY = 1989 165
 MELK8901.WTH                                                                  
 Found daily weather data headers for:                                         
   SRAD           Col   7 -  11                                                
   TMAX           Col  13 -  17                                                
   TMIN           Col  19 -  23                                                
   RAIN           Col  25 -  29                                                
   DEWP           Col  31 -  35                                                
   WIND           Col  37 -  41                                                
   PAR            Col  43 -  47                                                
   RHUM           Col  55 -  59                                                

 ENDRUN  YEAR DOY = 1989 270
 Normal end of run        9                                                    

******************************************************************************

*DSSAT Cropping System Model Ver. 4.7.5.008 -release  JAN 07, 2021 20:33:24

*RUN  10        : ERiMA DCC1                MZCER047 ETMZmelk    1
 MODEL          : MZCER047 - Maize
 EXPERIMENT     : ETMZmelk SN MELKSSAL
 DATA PATH      : C:\IRI\Python_Dash\ET_DSS_hist\TEST\
 TREATMENT  1   : ERiMA DCC1                MZCER047
  

 IPWTH   YEAR DOY = 1990 165
 MELK9001.WTH                                                                  
 Found daily weather data headers for:                                         
   SRAD           Col   7 -  11                                                
   TMAX           Col  13 -  17                                                
   TMIN           Col  19 -  23                                                
   RAIN           Col  25 -  29                                                
   DEWP           Col  31 -  35                                                
   WIND           Col  37 -  41                                                
   PAR            Col  43 -  47                                                
   RHUM           Col  55 -  59                                                

 ENDRUN  YEAR DOY = 1990 270
 Normal end of run       10                                                    

******************************************************************************

*DSSAT Cropping System Model Ver. 4.7.5.008 -release  JAN 07, 2021 20:33:24

*RUN  11        : ERiMA DCC1                MZCER047 ETMZmelk    1
 MODEL          : MZCER047 - Maize
 EXPERIMENT     : ETMZmelk SN MELKSSAL
 DATA PATH      : C:\IRI\Python_Dash\ET_DSS_hist\TEST\
 TREATMENT  1   : ERiMA DCC1                MZCER047
  

 IPWTH   YEAR DOY = 1991 165
 MELK9101.WTH                                                                  
 Found daily weather data headers for:                                         
   SRAD           Col   7 -  11                                                
   TMAX           Col  13 -  17                                                
   TMIN           Col  19 -  23                                                
   RAIN           Col  25 -  29                                                
   DEWP           Col  31 -  35                                                
   WIND           Col  37 -  41                                                
   PAR            Col  43 -  47                                                
   RHUM           Col  55 -  59                                                

 ENDRUN  YEAR DOY = 1991 269
 Normal end of run       11                                                    

******************************************************************************

*DSSAT Cropping System Model Ver. 4.7.5.008 -release  JAN 07, 2021 20:33:24

*RUN  12        : ERiMA DCC1                MZCER047 ETMZmelk    1
 MODEL          : MZCER047 - Maize
 EXPERIMENT     : ETMZmelk SN MELKSSAL
 DATA PATH      : C:\IRI\Python_Dash\ET_DSS_hist\TEST\
 TREATMENT  1   : ERiMA DCC1                MZCER047
  

 IPWTH   YEAR DOY = 1992 165
 MELK9201.WTH                                                                  
 Found daily weather data headers for:                                         
   SRAD           Col   7 -  11                                                
   TMAX           Col  13 -  17                                                
   TMIN           Col  19 -  23                                                
   RAIN           Col  25 -  29                                                
   DEWP           Col  31 -  35                                                
   WIND           Col  37 -  41                                                
   PAR            Col  43 -  47                                                
   RHUM           Col  55 -  59                                                

 ENDRUN  YEAR DOY = 1992 271
 Normal end of run       12                                                    

******************************************************************************

*DSSAT Cropping System Model Ver. 4.7.5.008 -release  JAN 07, 2021 20:33:24

*RUN  13        : ERiMA DCC1                MZCER047 ETMZmelk    1
 MODEL          : MZCER047 - Maize
 EXPERIMENT     : ETMZmelk SN MELKSSAL
 DATA PATH      : C:\IRI\Python_Dash\ET_DSS_hist\TEST\
 TREATMENT  1   : ERiMA DCC1                MZCER047
  

 IPWTH   YEAR DOY = 1993 165
 MELK9301.WTH                                                                  
 Found daily weather data headers for:                                         
   SRAD           Col   7 -  11                                                
   TMAX           Col  13 -  17                                                
   TMIN           Col  19 -  23                                                
   RAIN           Col  25 -  29                                                
   DEWP           Col  31 -  35                                                
   WIND           Col  37 -  41                                                
   PAR            Col  43 -  47                                                
   RHUM           Col  55 -  59                                                

 ENDRUN  YEAR DOY = 1993 272
 Normal end of run       13                                                    

******************************************************************************

*DSSAT Cropping System Model Ver. 4.7.5.008 -release  JAN 07, 2021 20:33:24

*RUN  14        : ERiMA DCC1                MZCER047 ETMZmelk    1
 MODEL          : MZCER047 - Maize
 EXPERIMENT     : ETMZmelk SN MELKSSAL
 DATA PATH      : C:\IRI\Python_Dash\ET_DSS_hist\TEST\
 TREATMENT  1   : ERiMA DCC1                MZCER047
  

 IPWTH   YEAR DOY = 1994 165
 MELK9401.WTH                                                                  
 Found daily weather data headers for:                                         
   SRAD           Col   7 -  11                                                
   TMAX           Col  13 -  17                                                
   TMIN           Col  19 -  23                                                
   RAIN           Col  25 -  29                                                
   DEWP           Col  31 -  35                                                
   WIND           Col  37 -  41                                                
   PAR            Col  43 -  47                                                
   RHUM           Col  55 -  59                                                

 ENDRUN  YEAR DOY = 1994 271
 Normal end of run       14                                                    

******************************************************************************

*DSSAT Cropping System Model Ver. 4.7.5.008 -release  JAN 07, 2021 20:33:24

*RUN  15        : ERiMA DCC1                MZCER047 ETMZmelk    1
 MODEL          : MZCER047 - Maize
 EXPERIMENT     : ETMZmelk SN MELKSSAL
 DATA PATH      : C:\IRI\Python_Dash\ET_DSS_hist\TEST\
 TREATMENT  1   : ERiMA DCC1                MZCER047
  

 IPWTH   YEAR DOY = 1995 165
 MELK9501.WTH                                                                  
 Found daily weather data headers for:                                         
   SRAD           Col   7 -  11                                                
   TMAX           Col  13 -  17                                                
   TMIN           Col  19 -  23                                                
   RAIN           Col  25 -  29                                                
   DEWP           Col  31 -  35                                                
   WIND           Col  37 -  41                                                
   PAR            Col  43 -  47                                                
   RHUM           Col  55 -  59                                                

 ENDRUN  YEAR DOY = 1995 269
 Normal end of run       15                                                    

******************************************************************************

*DSSAT Cropping System Model Ver. 4.7.5.008 -release  JAN 07, 2021 20:33:24

*RUN  16        : ERiMA DCC1                MZCER047 ETMZmelk    1
 MODEL          : MZCER047 - Maize
 EXPERIMENT     : ETMZmelk SN MELKSSAL
 DATA PATH      : C:\IRI\Python_Dash\ET_DSS_hist\TEST\
 TREATMENT  1   : ERiMA DCC1                MZCER047
  

 IPWTH   YEAR DOY = 1996 165
 MELK9601.WTH                                                                  
 Found daily weather data headers for:                                         
   SRAD           Col   7 -  11                                                
   TMAX           Col  13 -  17                                                
   TMIN           Col  19 -  23                                                
   RAIN           Col  25 -  29                                                
   DEWP           Col  31 -  35                                                
   WIND           Col  37 -  41                                                
   PAR            Col  43 -  47                                                
   RHUM           Col  55 -  59                                                

 ENDRUN  YEAR DOY = 1996 273
 Normal end of run       16                                                    

******************************************************************************

*DSSAT Cropping System Model Ver. 4.7.5.008 -release  JAN 07, 2021 20:33:24

*RUN  17        : ERiMA DCC1                MZCER047 ETMZmelk    1
 MODEL          : MZCER047 - Maize
 EXPERIMENT     : ETMZmelk SN MELKSSAL
 DATA PATH      : C:\IRI\Python_Dash\ET_DSS_hist\TEST\
 TREATMENT  1   : ERiMA DCC1                MZCER047
  

 IPWTH   YEAR DOY = 1997 165
 MELK9701.WTH                                                                  
 Found daily weather data headers for:                                         
   SRAD           Col   7 -  11                                                
   TMAX           Col  13 -  17                                                
   TMIN           Col  19 -  23                                                
   RAIN           Col  25 -  29                                                
   DEWP           Col  31 -  35                                                
   WIND           Col  37 -  41                                                
   PAR            Col  43 -  47                                                
   RHUM           Col  55 -  59                                                

 ENDRUN  YEAR DOY = 1997 267
 Normal end of run       17                                                    

******************************************************************************

*DSSAT Cropping System Model Ver. 4.7.5.008 -release  JAN 07, 2021 20:33:24

*RUN  18        : ERiMA DCC1                MZCER047 ETMZmelk    1
 MODEL          : MZCER047 - Maize
 EXPERIMENT     : ETMZmelk SN MELKSSAL
 DATA PATH      : C:\IRI\Python_Dash\ET_DSS_hist\TEST\
 TREATMENT  1   : ERiMA DCC1                MZCER047
  

 IPWTH   YEAR DOY = 1998 165
 MELK9801.WTH                                                                  
 Found daily weather data headers for:                                         
   SRAD           Col   7 -  11                                                
   TMAX           Col  13 -  17                                                
   TMIN           Col  19 -  23                                                
   RAIN           Col  25 -  29                                                
   DEWP           Col  31 -  35                                                
   WIND           Col  37 -  41                                                
   PAR            Col  43 -  47                                                
   RHUM           Col  55 -  59                                                

 ENDRUN  YEAR DOY = 1998 270
 Normal end of run       18                                                    

******************************************************************************

*DSSAT Cropping System Model Ver. 4.7.5.008 -release  JAN 07, 2021 20:33:24

*RUN  19        : ERiMA DCC1                MZCER047 ETMZmelk    1
 MODEL          : MZCER047 - Maize
 EXPERIMENT     : ETMZmelk SN MELKSSAL
 DATA PATH      : C:\IRI\Python_Dash\ET_DSS_hist\TEST\
 TREATMENT  1   : ERiMA DCC1                MZCER047
  

 IPWTH   YEAR DOY = 1999 165
 MELK9901.WTH                                                                  
 Found daily weather data headers for:                                         
   SRAD           Col   7 -  11                                                
   TMAX           Col  13 -  17                                                
   TMIN           Col  19 -  23                                                
   RAIN           Col  25 -  29                                                
   DEWP           Col  31 -  35                                                
   WIND           Col  37 -  41                                                
   PAR            Col  43 -  47                                                
   RHUM           Col  55 -  59                                                

 ENDRUN  YEAR DOY = 1999 274
 Normal end of run       19                                                    

******************************************************************************

*DSSAT Cropping System Model Ver. 4.7.5.008 -release  JAN 07, 2021 20:33:24

*RUN  20        : ERiMA DCC1                MZCER047 ETMZmelk    1
 MODEL          : MZCER047 - Maize
 EXPERIMENT     : ETMZmelk SN MELKSSAL
 DATA PATH      : C:\IRI\Python_Dash\ET_DSS_hist\TEST\
 TREATMENT  1   : ERiMA DCC1                MZCER047
  

 IPWTH   YEAR DOY = 2000 165
 MELK0001.WTH                                                                  
 Found daily weather data headers for:                                         
   SRAD           Col   7 -  11                                                
   TMAX           Col  13 -  17                                                
   TMIN           Col  19 -  23                                                
   RAIN           Col  25 -  29                                                
   DEWP           Col  31 -  35                                                
   WIND           Col  37 -  41                                                
   PAR            Col  43 -  47                                                
   RHUM           Col  55 -  59                                                

 ENDRUN  YEAR DOY = 2000 271
 Normal end of run       20                                                    

******************************************************************************

*DSSAT Cropping System Model Ver. 4.7.5.008 -release  JAN 07, 2021 20:33:24

*RUN  21        : ERiMA DCC1                MZCER047 ETMZmelk    1
 MODEL          : MZCER047 - Maize
 EXPERIMENT     : ETMZmelk SN MELKSSAL
 DATA PATH      : C:\IRI\Python_Dash\ET_DSS_hist\TEST\
 TREATMENT  1   : ERiMA DCC1                MZCER047
  

 IPWTH   YEAR DOY = 2001 165
 MELK0101.WTH                                                                  
 Found daily weather data headers for:                                         
   SRAD           Col   7 -  11                                                
   TMAX           Col  13 -  17                                                
   TMIN           Col  19 -  23                                                
   RAIN           Col  25 -  29                                                
   DEWP           Col  31 -  35                                                
   WIND           Col  37 -  41                                                
   PAR            Col  43 -  47                                                
   RHUM           Col  55 -  59                                                

 ENDRUN  YEAR DOY = 2001 271
 Normal end of run       21                                                    

******************************************************************************

*DSSAT Cropping System Model Ver. 4.7.5.008 -release  JAN 07, 2021 20:33:24

*RUN  22        : ERiMA DCC1                MZCER047 ETMZmelk    1
 MODEL          : MZCER047 - Maize
 EXPERIMENT     : ETMZmelk SN MELKSSAL
 DATA PATH      : C:\IRI\Python_Dash\ET_DSS_hist\TEST\
 TREATMENT  1   : ERiMA DCC1                MZCER047
  

 IPWTH   YEAR DOY = 2002 165
 MELK0201.WTH                                                                  
 Found daily weather data headers for:                                         
   SRAD           Col   7 -  11                                                
   TMAX           Col  13 -  17                                                
   TMIN           Col  19 -  23                                                
   RAIN           Col  25 -  29                                                
   DEWP           Col  31 -  35                                                
   WIND           Col  37 -  41                                                
   PAR            Col  43 -  47                                                
   RHUM           Col  55 -  59                                                

 ENDRUN  YEAR DOY = 2002 267
 Normal end of run       22                                                    

******************************************************************************

*DSSAT Cropping System Model Ver. 4.7.5.008 -release  JAN 07, 2021 20:33:24

*RUN  23        : ERiMA DCC1                MZCER047 ETMZmelk    1
 MODEL          : MZCER047 - Maize
 EXPERIMENT     : ETMZmelk SN MELKSSAL
 DATA PATH      : C:\IRI\Python_Dash\ET_DSS_hist\TEST\
 TREATMENT  1   : ERiMA DCC1                MZCER047
  

 IPWTH   YEAR DOY = 2003 165
 MELK0301.WTH                                                                  
 Found daily weather data headers for:                                         
   SRAD           Col   7 -  11                                                
   TMAX           Col  13 -  17                                                
   TMIN           Col  19 -  23                                                
   RAIN           Col  25 -  29                                                
   DEWP           Col  31 -  35                                                
   WIND           Col  37 -  41                                                
   PAR            Col  43 -  47                                                
   RHUM           Col  55 -  59                                                

 ENDRUN  YEAR DOY = 2003 269
 Normal end of run       23                                                    

******************************************************************************

*DSSAT Cropping System Model Ver. 4.7.5.008 -release  JAN 07, 2021 20:33:24

*RUN  24        : ERiMA DCC1                MZCER047 ETMZmelk    1
 MODEL          : MZCER047 - Maize
 EXPERIMENT     : ETMZmelk SN MELKSSAL
 DATA PATH      : C:\IRI\Python_Dash\ET_DSS_hist\TEST\
 TREATMENT  1   : ERiMA DCC1                MZCER047
  

 IPWTH   YEAR DOY = 2004 165
 MELK0401.WTH                                                                  
 Found daily weather data headers for:                                         
   SRAD           Col   7 -  11                                                
   TMAX           Col  13 -  17                                                
   TMIN           Col  19 -  23                                                
   RAIN           Col  25 -  29                                                
   DEWP           Col  31 -  35                                                
   WIND           Col  37 -  41                                                
   PAR            Col  43 -  47                                                
   RHUM           Col  55 -  59                                                

 ENDRUN  YEAR DOY = 2004 269
 Normal end of run       24                                                    

******************************************************************************

*DSSAT Cropping System Model Ver. 4.7.5.008 -release  JAN 07, 2021 20:33:24

*RUN  25        : ERiMA DCC1                MZCER047 ETMZmelk    1
 MODEL          : MZCER047 - Maize
 EXPERIMENT     : ETMZmelk SN MELKSSAL
 DATA PATH      : C:\IRI\Python_Dash\ET_DSS_hist\TEST\
 TREATMENT  1   : ERiMA DCC1                MZCER047
  

 IPWTH   YEAR DOY = 2005 165
 MELK0501.WTH                                                                  
 Found daily weather data headers for:                                         
   SRAD           Col   7 -  11                                                
   TMAX           Col  13 -  17                                                
   TMIN           Col  19 -  23                                                
   RAIN           Col  25 -  29                                                
   DEWP           Col  31 -  35                                                
   WIND           Col  37 -  41                                                
   PAR            Col  43 -  47                                                
   RHUM           Col  55 -  59                                                

 ENDRUN  YEAR DOY = 2005 269
 Normal end of run       25                                                    

******************************************************************************

*DSSAT Cropping System Model Ver. 4.7.5.008 -release  JAN 07, 2021 20:33:24

*RUN  26        : ERiMA DCC1                MZCER047 ETMZmelk    1
 MODEL          : MZCER047 - Maize
 EXPERIMENT     : ETMZmelk SN MELKSSAL
 DATA PATH      : C:\IRI\Python_Dash\ET_DSS_hist\TEST\
 TREATMENT  1   : ERiMA DCC1                MZCER047
  

 IPWTH   YEAR DOY = 2006 165
 MELK0601.WTH                                                                  
 Found daily weather data headers for:                                         
   SRAD           Col   7 -  11                                                
   TMAX           Col  13 -  17                                                
   TMIN           Col  19 -  23                                                
   RAIN           Col  25 -  29                                                
   DEWP           Col  31 -  35                                                
   WIND           Col  37 -  41                                                
   PAR            Col  43 -  47                                                
   RHUM           Col  55 -  59                                                

 ENDRUN  YEAR DOY = 2006 270
 Normal end of run       26                                                    

******************************************************************************

*DSSAT Cropping System Model Ver. 4.7.5.008 -release  JAN 07, 2021 20:33:24

*RUN  27        : ERiMA DCC1                MZCER047 ETMZmelk    1
 MODEL          : MZCER047 - Maize
 EXPERIMENT     : ETMZmelk SN MELKSSAL
 DATA PATH      : C:\IRI\Python_Dash\ET_DSS_hist\TEST\
 TREATMENT  1   : ERiMA DCC1                MZCER047
  

 IPWTH   YEAR DOY = 2007 165
 MELK0701.WTH                                                                  
 Found daily weather data headers for:                                         
   SRAD           Col   7 -  11                                                
   TMAX           Col  13 -  17                                                
   TMIN           Col  19 -  23                                                
   RAIN           Col  25 -  29                                                
   DEWP           Col  31 -  35                                                
   WIND           Col  37 -  41                                                
   PAR            Col  43 -  47                                                
   RHUM           Col  55 -  59                                                

 ENDRUN  YEAR DOY = 2007 272
 Normal end of run       27                                                    

******************************************************************************

*DSSAT Cropping System Model Ver. 4.7.5.008 -release  JAN 07, 2021 20:33:24

*RUN  28        : ERiMA DCC1                MZCER047 ETMZmelk    1
 MODEL          : MZCER047 - Maize
 EXPERIMENT     : ETMZmelk SN MELKSSAL
 DATA PATH      : C:\IRI\Python_Dash\ET_DSS_hist\TEST\
 TREATMENT  1   : ERiMA DCC1                MZCER047
  

 IPWTH   YEAR DOY = 2008 165
 MELK0801.WTH                                                                  
 Found daily weather data headers for:                                         
   SRAD           Col   7 -  11                                                
   TMAX           Col  13 -  17                                                
   TMIN           Col  19 -  23                                                
   RAIN           Col  25 -  29                                                
   DEWP           Col  31 -  35                                                
   WIND           Col  37 -  41                                                
   PAR            Col  43 -  47                                                
   RHUM           Col  55 -  59                                                

 ENDRUN  YEAR DOY = 2008 270
 Normal end of run       28                                                    

******************************************************************************

*DSSAT Cropping System Model Ver. 4.7.5.008 -release  JAN 07, 2021 20:33:24

*RUN  29        : ERiMA DCC1                MZCER047 ETMZmelk    1
 MODEL          : MZCER047 - Maize
 EXPERIMENT     : ETMZmelk SN MELKSSAL
 DATA PATH      : C:\IRI\Python_Dash\ET_DSS_hist\TEST\
 TREATMENT  1   : ERiMA DCC1                MZCER047
  

 IPWTH   YEAR DOY = 2009 165
 MELK0901.WTH                                                                  
 Found daily weather data headers for:                                         
   SRAD           Col   7 -  11                                                
   TMAX           Col  13 -  17                                                
   TMIN           Col  19 -  23                                                
   RAIN           Col  25 -  29                                                
   DEWP           Col  31 -  35                                                
   WIND           Col  37 -  41                                                
   PAR            Col  43 -  47                                                
   RHUM           Col  55 -  59                                                

 ENDRUN  YEAR DOY = 2009 264
 Normal end of run       29                                                    

******************************************************************************

*DSSAT Cropping System Model Ver. 4.7.5.008 -release  JAN 07, 2021 20:33:24

*RUN  30        : ERiMA DCC1                MZCER047 ETMZmelk    1
 MODEL          : MZCER047 - Maize
 EXPERIMENT     : ETMZmelk SN MELKSSAL
 DATA PATH      : C:\IRI\Python_Dash\ET_DSS_hist\TEST\
 TREATMENT  1   : ERiMA DCC1                MZCER047
  

 IPWTH   YEAR DOY = 2010 165
 MELK1001.WTH                                                                  
 Found daily weather data headers for:                                         
   SRAD           Col   7 -  11                                                
   TMAX           Col  13 -  17                                                
   TMIN           Col  19 -  23                                                
   RAIN           Col  25 -  29                                                
   DEWP           Col  31 -  35                                                
   WIND           Col  37 -  41                                                
   PAR            Col  43 -  47                                                
   RHUM           Col  55 -  59                                                

 ENDRUN  YEAR DOY = 2010 260
 Normal end of run       30                                                    

******************************************************************************

*DSSAT Cropping System Model Ver. 4.7.5.008 -release  JAN 07, 2021 20:33:24

*RUN  31        : ERiMA DCC1                MZCER047 ETMZmelk    1
 MODEL          : MZCER047 - Maize
 EXPERIMENT     : ETMZmelk SN MELKSSAL
 DATA PATH      : C:\IRI\Python_Dash\ET_DSS_hist\TEST\
 TREATMENT  1   : ERiMA DCC1                MZCER047
  

 IPWTH   YEAR DOY = 2011 165
 MELK1101.WTH                                                                  
 Found daily weather data headers for:                                         
   SRAD           Col   7 -  11                                                
   TMAX           Col  13 -  17                                                
   TMIN           Col  19 -  23                                                
   RAIN           Col  25 -  29                                                
   DEWP           Col  31 -  35                                                
   WIND           Col  37 -  41                                                
   PAR            Col  43 -  47                                                
   RHUM           Col  55 -  59                                                

 ENDRUN  YEAR DOY = 2011 281
 Normal end of run       31                                                    

******************************************************************************

*DSSAT Cropping System Model Ver. 4.7.5.008 -release  JAN 07, 2021 20:33:24

*RUN  32        : ERiMA DCC1                MZCER047 ETMZmelk    1
 MODEL          : MZCER047 - Maize
 EXPERIMENT     : ETMZmelk SN MELKSSAL
 DATA PATH      : C:\IRI\Python_Dash\ET_DSS_hist\TEST\
 TREATMENT  1   : ERiMA DCC1                MZCER047
  

 IPWTH   YEAR DOY = 2012 165
 MELK1201.WTH                                                                  
 Found daily weather data headers for:                                         
   SRAD           Col   7 -  11                                                
   TMAX           Col  13 -  17                                                
   TMIN           Col  19 -  23                                                
   RAIN           Col  25 -  29                                                
   DEWP           Col  31 -  35                                                
   WIND           Col  37 -  41                                                
   PAR            Col  43 -  47                                                
   RHUM           Col  55 -  59                                                

 ENDRUN  YEAR DOY = 2012 282
 Normal end of run       32                                                    

******************************************************************************

*DSSAT Cropping System Model Ver. 4.7.5.008 -release  JAN 07, 2021 20:33:24

*RUN  33        : ERiMA DCC1                MZCER047 ETMZmelk    1
 MODEL          : MZCER047 - Maize
 EXPERIMENT     : ETMZmelk SN MELKSSAL
 DATA PATH      : C:\IRI\Python_Dash\ET_DSS_hist\TEST\
 TREATMENT  1   : ERiMA DCC1                MZCER047
  

 IPWTH   YEAR DOY = 2013 165
 MELK1301.WTH                                                                  
 Found daily weather data headers for:                                         
   SRAD           Col   7 -  11                                                
   TMAX           Col  13 -  17                                                
   TMIN           Col  19 -  23                                                
   RAIN           Col  25 -  29                                                
   DEWP           Col  31 -  35                                                
   WIND           Col  37 -  41                                                
   PAR            Col  43 -  47                                                
   RHUM           Col  55 -  59                                                

 ENDRUN  YEAR DOY = 2013 284
 Normal end of run       33                                                    

******************************************************************************

*DSSAT Cropping System Model Ver. 4.7.5.008 -release  JAN 07, 2021 20:33:24

*RUN  34        : ERiMA DCC1                MZCER047 ETMZmelk    1
 MODEL          : MZCER047 - Maize
 EXPERIMENT     : ETMZmelk SN MELKSSAL
 DATA PATH      : C:\IRI\Python_Dash\ET_DSS_hist\TEST\
 TREATMENT  1   : ERiMA DCC1                MZCER047
  

 IPWTH   YEAR DOY = 2014 165
 MELK1401.WTH                                                                  
 Found daily weather data headers for:                                         
   SRAD           Col   7 -  11                                                
   TMAX           Col  13 -  17                                                
   TMIN           Col  19 -  23                                                
   RAIN           Col  25 -  29                                                
   DEWP           Col  31 -  35                                                
   WIND           Col  37 -  41                                                
   PAR            Col  43 -  47                                                
   RHUM           Col  55 -  59                                                

 ENDRUN  YEAR DOY = 2014 283
 Normal end of run       34                                                    

******************************************************************************

*DSSAT Cropping System Model Ver. 4.7.5.008 -release  JAN 07, 2021 20:33:24

*RUN  35        : ERiMA DCC1                MZCER047 ETMZmelk    1
 MODEL          : MZCER047 - Maize
 EXPERIMENT     : ETMZmelk SN MELKSSAL
 DATA PATH      : C:\IRI\Python_Dash\ET_DSS_hist\TEST\
 TREATMENT  1   : ERiMA DCC1                MZCER047
  

 IPWTH   YEAR DOY = 2015 165
 MELK1501.WTH                                                                  
 Found daily weather data headers for:                                         
   SRAD           Col   7 -  11                                                
   TMAX           Col  13 -  17                                                
   TMIN           Col  19 -  23                                                
   RAIN           Col  25 -  29                                                
   DEWP           Col  31 -  35                                                
   WIND           Col  37 -  41                                                
   PAR            Col  43 -  47                                                
   RHUM           Col  55 -  59                                                

 ENDRUN  YEAR DOY = 2015 276
 Normal end of run       35                                                    

******************************************************************************

*DSSAT Cropping System Model Ver. 4.7.5.008 -release  JAN 07, 2021 20:33:40

*RUN  36        : ERiMA DCC1                MZCER047 ETMZbako    1
 MODEL          : MZCER047 - Maize
 EXPERIMENT     : ETMZbako SN MELKSSAL
 DATA PATH      : C:\IRI\Python_Dash\ET_DSS_hist\TEST\
 TREATMENT  1   : ERiMA DCC1                MZCER047
  

 CSM     YEAR DOY = 1981 165
 RNMODE = B                                                                    
 PATHEX = C:\IRI\Python_Dash\ET_DSS_hist\TEST\                                 
 FILEX  = ETMZbako.SNX                                                         
 FILEB  = DSSBatch.v47                                                         
 FILEIO = DSSAT47.INP                                                          
 MODEL  = MZCER047                                                             
 TRTNUM =     1                                                                

 SOILDYN  YEAR DOY = 1981 165
 The soil file has missing or invalid data.                                    
 Default values have been used for these variables:                            
   STONES, ADCOEF                                                              
 These defaults may or may not be important to your results.                   

 RETC  YEAR DOY = 1981 165
 Soil RETC parameters:                                                         
  LYR DS  SWCN   WCR    Hb Lambd  Alpha     m     n Texture                    
   1   5  1.32 0.038   0.6 0.145  0.027 0.171 1.207 Loam                       
   2  15  1.32 0.038   0.6 0.145  0.027 0.171 1.207 Loam                       
   3  20  1.32 0.038   0.6 0.145  0.027 0.171 1.207 Loam                       
   4  35  1.32 0.028   3.6 0.244  0.012 0.235 1.308 Loam                       
   5  50  0.23 0.046   8.9 0.336  0.006 0.285 1.399 ClayLoam                   
   6  65  0.23 0.046   8.9 0.336  0.006 0.285 1.399 ClayLoam                   
   7  81  0.23 0.051   5.5 0.292  0.009 0.262 1.355 ClayLoam                   
   8  97  0.23 0.051   5.5 0.292  0.009 0.262 1.355 ClayLoam                   
   9 118  1.32 0.036   5.2 0.212  0.010 0.202 1.254 Loam                       
  10 140  1.32 0.036   5.2 0.212  0.010 0.202 1.254 Loam                       
  11 170  1.32 0.037   4.1 0.193  0.011 0.190 1.234 Loam                       
  12 200  0.23 0.066   5.6 0.220  0.009 0.207 1.261 ClayLoam                   

 SOILDYN  YEAR DOY = 1981 165
 Soil ID: ETET001_18                                                           
   ET000_18                                                                    
 VITRIC ANDOSOLS                                                               
   SALB SWCON    CN  DMOD  SLPF SMPX                                           
   0.13  0.60  81.0  1.00  0.70 IB00                                           
 Soil layer distribution method: 2                                             
      DS DLAYR    LL   DUL   SAT  Root    BD    OC  CLAY  SILT  SAND           
 LYR  cm    cm  frac  frac  frac  Grow g/cm3     %     %     %     %    pH     
   1   5     5 0.166 0.260 0.433 1.000  1.20  1.50  22.0  36.0  42.0   7.9     
   2  15    10 0.166 0.260 0.433 1.000  1.20  1.50  22.0  36.0  42.0   7.9     
   3  20     5 0.166 0.260 0.433 1.000  1.20  1.50  22.0  36.0  42.0   7.9     
   4  35    15 0.121 0.264 0.434 0.577  1.20  1.48  24.0  36.0  40.0   8.0     
   5  50    15 0.121 0.316 0.466 0.100  1.10  1.46  36.0  38.0  26.0   8.3     
   6  65    15 0.121 0.316 0.466 0.100  1.10  1.46  36.0  38.0  26.0   8.3     
   7  81    16 0.134 0.304 0.477 0.000  1.00  1.40  28.0  44.0  28.0   8.5     
   8  97    16 0.134 0.304 0.477 0.000  1.00  1.40  28.0  44.0  28.0   8.5     
   9 118    21 0.156 0.305 0.433 0.000  1.28  0.98  25.0  45.0  30.0   8.6     
  10 140    22 0.156 0.305 0.433 0.000  1.28  0.98  25.0  45.0  30.0   8.6     
  11 170    30 0.162 0.298 0.428 0.000  1.36  0.78  26.0  38.0  36.0   8.5     
  12 200    30 0.173 0.314 0.433 0.000  1.33  0.78  28.0  40.0  32.0   8.3     

 SOILDYN  YEAR DOY = 1981 165
 Additional soil properties                                                    
                Convert                                                        
    Cation Adsrp  ppm /  KSAT  SLCF  TOTN  OrgN                                
   L  Exch  Coef  kg/ha  cm/h     %     % kg/ha                                
   1  25.4   0.0   1.67   1.3   0.0  0.14   831                                
   2  25.4   0.0   0.83   1.3   0.0  0.14  1662                                
   3  25.4   0.0   1.67   1.3   0.0  0.14   831                                
   4  27.4   0.0   0.56   1.3   0.0  0.11  1976                                
   5  36.0   0.0   0.61   0.2   0.0  0.10  1650                                
   6  36.0   0.0   0.61   0.2   0.0  0.10  1650                                
   7  30.2   0.0   0.62   0.2   0.0  0.08  1280                                
   8  30.2   0.0   0.62   0.2   0.0  0.08  1280                                
   9  33.2   0.0   0.37   1.3   0.0  0.06  1613                                
  10  33.2   0.0   0.36   1.3   0.0  0.06  1689                                
  11  28.2   0.0   0.25   1.3   0.0  0.06  2448                                
  12  39.2   0.0   0.25   0.2   0.0  0.05  1995                                

 IPWTH   YEAR DOY = 1981 165
 BAKO8101.WTH                                                                  
 Found daily weather data headers for:                                         
   SRAD           Col   7 -  11                                                
   TMAX           Col  13 -  17                                                
   TMIN           Col  19 -  23                                                
   RAIN           Col  25 -  29                                                
   DEWP           Col  31 -  35                                                
   WIND           Col  37 -  41                                                
   PAR            Col  43 -  47                                                
   RHUM           Col  55 -  59                                                

 ENDRUN  YEAR DOY = 1981 310
 Normal end of run       36                                                    

******************************************************************************

*DSSAT Cropping System Model Ver. 4.7.5.008 -release  JAN 07, 2021 20:33:40

*RUN  37        : ERiMA DCC1                MZCER047 ETMZbako    1
 MODEL          : MZCER047 - Maize
 EXPERIMENT     : ETMZbako SN MELKSSAL
 DATA PATH      : C:\IRI\Python_Dash\ET_DSS_hist\TEST\
 TREATMENT  1   : ERiMA DCC1                MZCER047
  

 IPWTH   YEAR DOY = 1982 165
 BAKO8201.WTH                                                                  
 Found daily weather data headers for:                                         
   SRAD           Col   7 -  11                                                
   TMAX           Col  13 -  17                                                
   TMIN           Col  19 -  23                                                
   RAIN           Col  25 -  29                                                
   DEWP           Col  31 -  35                                                
   WIND           Col  37 -  41                                                
   PAR            Col  43 -  47                                                
   RHUM           Col  55 -  59                                                

 ENDRUN  YEAR DOY = 1982 306
 Normal end of run       37                                                    

******************************************************************************

*DSSAT Cropping System Model Ver. 4.7.5.008 -release  JAN 07, 2021 20:33:40

*RUN  38        : ERiMA DCC1                MZCER047 ETMZbako    1
 MODEL          : MZCER047 - Maize
 EXPERIMENT     : ETMZbako SN MELKSSAL
 DATA PATH      : C:\IRI\Python_Dash\ET_DSS_hist\TEST\
 TREATMENT  1   : ERiMA DCC1                MZCER047
  

 IPWTH   YEAR DOY = 1983 165
 BAKO8301.WTH                                                                  
 Found daily weather data headers for:                                         
   SRAD           Col   7 -  11                                                
   TMAX           Col  13 -  17                                                
   TMIN           Col  19 -  23                                                
   RAIN           Col  25 -  29                                                
   DEWP           Col  31 -  35                                                
   WIND           Col  37 -  41                                                
   PAR            Col  43 -  47                                                
   RHUM           Col  55 -  59                                                

 ENDRUN  YEAR DOY = 1983 309
 Normal end of run       38                                                    

******************************************************************************

*DSSAT Cropping System Model Ver. 4.7.5.008 -release  JAN 07, 2021 20:33:40

*RUN  39        : ERiMA DCC1                MZCER047 ETMZbako    1
 MODEL          : MZCER047 - Maize
 EXPERIMENT     : ETMZbako SN MELKSSAL
 DATA PATH      : C:\IRI\Python_Dash\ET_DSS_hist\TEST\
 TREATMENT  1   : ERiMA DCC1                MZCER047
  

 IPWTH   YEAR DOY = 1984 165
 BAKO8401.WTH                                                                  
 Found daily weather data headers for:                                         
   SRAD           Col   7 -  11                                                
   TMAX           Col  13 -  17                                                
   TMIN           Col  19 -  23                                                
   RAIN           Col  25 -  29                                                
   DEWP           Col  31 -  35                                                
   WIND           Col  37 -  41                                                
   PAR            Col  43 -  47                                                
   RHUM           Col  55 -  59                                                

 ENDRUN  YEAR DOY = 1984 308
 Normal end of run       39                                                    

******************************************************************************

*DSSAT Cropping System Model Ver. 4.7.5.008 -release  JAN 07, 2021 20:33:40

*RUN  40        : ERiMA DCC1                MZCER047 ETMZbako    1
 MODEL          : MZCER047 - Maize
 EXPERIMENT     : ETMZbako SN MELKSSAL
 DATA PATH      : C:\IRI\Python_Dash\ET_DSS_hist\TEST\
 TREATMENT  1   : ERiMA DCC1                MZCER047
  

 IPWTH   YEAR DOY = 1985 165
 BAKO8501.WTH                                                                  
 Found daily weather data headers for:                                         
   SRAD           Col   7 -  11                                                
   TMAX           Col  13 -  17                                                
   TMIN           Col  19 -  23                                                
   RAIN           Col  25 -  29                                                
   DEWP           Col  31 -  35                                                
   WIND           Col  37 -  41                                                
   PAR            Col  43 -  47                                                
   RHUM           Col  55 -  59                                                

 ENDRUN  YEAR DOY = 1985 309
 Normal end of run       40                                                    

******************************************************************************

*DSSAT Cropping System Model Ver. 4.7.5.008 -release  JAN 07, 2021 20:33:40

*RUN  41        : ERiMA DCC1                MZCER047 ETMZbako    1
 MODEL          : MZCER047 - Maize
 EXPERIMENT     : ETMZbako SN MELKSSAL
 DATA PATH      : C:\IRI\Python_Dash\ET_DSS_hist\TEST\
 TREATMENT  1   : ERiMA DCC1                MZCER047
  

 IPWTH   YEAR DOY = 1986 165
 BAKO8601.WTH                                                                  
 Found daily weather data headers for:                                         
   SRAD           Col   7 -  11                                                
   TMAX           Col  13 -  17                                                
   TMIN           Col  19 -  23                                                
   RAIN           Col  25 -  29                                                
   DEWP           Col  31 -  35                                                
   WIND           Col  37 -  41                                                
   PAR            Col  43 -  47                                                
   RHUM           Col  55 -  59                                                

 ENDRUN  YEAR DOY = 1986 304
 Normal end of run       41                                                    

******************************************************************************

*DSSAT Cropping System Model Ver. 4.7.5.008 -release  JAN 07, 2021 20:33:40

*RUN  42        : ERiMA DCC1                MZCER047 ETMZbako    1
 MODEL          : MZCER047 - Maize
 EXPERIMENT     : ETMZbako SN MELKSSAL
 DATA PATH      : C:\IRI\Python_Dash\ET_DSS_hist\TEST\
 TREATMENT  1   : ERiMA DCC1                MZCER047
  

 IPWTH   YEAR DOY = 1987 165
 BAKO8701.WTH                                                                  
 Found daily weather data headers for:                                         
   SRAD           Col   7 -  11                                                
   TMAX           Col  13 -  17                                                
   TMIN           Col  19 -  23                                                
   RAIN           Col  25 -  29                                                
   DEWP           Col  31 -  35                                                
   WIND           Col  37 -  41                                                
   PAR            Col  43 -  47                                                
   RHUM           Col  55 -  59                                                

 ENDRUN  YEAR DOY = 1987 309
 Normal end of run       42                                                    

******************************************************************************

*DSSAT Cropping System Model Ver. 4.7.5.008 -release  JAN 07, 2021 20:33:40

*RUN  43        : ERiMA DCC1                MZCER047 ETMZbako    1
 MODEL          : MZCER047 - Maize
 EXPERIMENT     : ETMZbako SN MELKSSAL
 DATA PATH      : C:\IRI\Python_Dash\ET_DSS_hist\TEST\
 TREATMENT  1   : ERiMA DCC1                MZCER047
  

 IPWTH   YEAR DOY = 1988 165
 BAKO8801.WTH                                                                  
 Found daily weather data headers for:                                         
   SRAD           Col   7 -  11                                                
   TMAX           Col  13 -  17                                                
   TMIN           Col  19 -  23                                                
   RAIN           Col  25 -  29                                                
   DEWP           Col  31 -  35                                                
   WIND           Col  37 -  41                                                
   PAR            Col  43 -  47                                                
   RHUM           Col  55 -  59                                                

 ENDRUN  YEAR DOY = 1988 303
 Normal end of run       43                                                    

******************************************************************************

*DSSAT Cropping System Model Ver. 4.7.5.008 -release  JAN 07, 2021 20:33:40

*RUN  44        : ERiMA DCC1                MZCER047 ETMZbako    1
 MODEL          : MZCER047 - Maize
 EXPERIMENT     : ETMZbako SN MELKSSAL
 DATA PATH      : C:\IRI\Python_Dash\ET_DSS_hist\TEST\
 TREATMENT  1   : ERiMA DCC1                MZCER047
  

 IPWTH   YEAR DOY = 1989 165
 BAKO8901.WTH                                                                  
 Found daily weather data headers for:                                         
   SRAD           Col   7 -  11                                                
   TMAX           Col  13 -  17                                                
   TMIN           Col  19 -  23                                                
   RAIN           Col  25 -  29                                                
   DEWP           Col  31 -  35                                                
   WIND           Col  37 -  41                                                
   PAR            Col  43 -  47                                                
   RHUM           Col  55 -  59                                                

 ENDRUN  YEAR DOY = 1989 309
 Normal end of run       44                                                    

******************************************************************************

*DSSAT Cropping System Model Ver. 4.7.5.008 -release  JAN 07, 2021 20:33:40

*RUN  45        : ERiMA DCC1                MZCER047 ETMZbako    1
 MODEL          : MZCER047 - Maize
 EXPERIMENT     : ETMZbako SN MELKSSAL
 DATA PATH      : C:\IRI\Python_Dash\ET_DSS_hist\TEST\
 TREATMENT  1   : ERiMA DCC1                MZCER047
  

 IPWTH   YEAR DOY = 1990 165
 BAKO9001.WTH                                                                  
 Found daily weather data headers for:                                         
   SRAD           Col   7 -  11                                                
   TMAX           Col  13 -  17                                                
   TMIN           Col  19 -  23                                                
   RAIN           Col  25 -  29                                                
   DEWP           Col  31 -  35                                                
   WIND           Col  37 -  41                                                
   PAR            Col  43 -  47                                                
   RHUM           Col  55 -  59                                                

 ENDRUN  YEAR DOY = 1990 302
 Normal end of run       45                                                    

******************************************************************************

*DSSAT Cropping System Model Ver. 4.7.5.008 -release  JAN 07, 2021 20:33:40

*RUN  46        : ERiMA DCC1                MZCER047 ETMZbako    1
 MODEL          : MZCER047 - Maize
 EXPERIMENT     : ETMZbako SN MELKSSAL
 DATA PATH      : C:\IRI\Python_Dash\ET_DSS_hist\TEST\
 TREATMENT  1   : ERiMA DCC1                MZCER047
  

 IPWTH   YEAR DOY = 1991 165
 BAKO9101.WTH                                                                  
 Found daily weather data headers for:                                         
   SRAD           Col   7 -  11                                                
   TMAX           Col  13 -  17                                                
   TMIN           Col  19 -  23                                                
   RAIN           Col  25 -  29                                                
   DEWP           Col  31 -  35                                                
   WIND           Col  37 -  41                                                
   PAR            Col  43 -  47                                                
   RHUM           Col  55 -  59                                                

 ENDRUN  YEAR DOY = 1991 311
 Normal end of run       46                                                    

******************************************************************************

*DSSAT Cropping System Model Ver. 4.7.5.008 -release  JAN 07, 2021 20:33:40

*RUN  47        : ERiMA DCC1                MZCER047 ETMZbako    1
 MODEL          : MZCER047 - Maize
 EXPERIMENT     : ETMZbako SN MELKSSAL
 DATA PATH      : C:\IRI\Python_Dash\ET_DSS_hist\TEST\
 TREATMENT  1   : ERiMA DCC1                MZCER047
  

 IPWTH   YEAR DOY = 1992 165
 BAKO9201.WTH                                                                  
 Found daily weather data headers for:                                         
   SRAD           Col   7 -  11                                                
   TMAX           Col  13 -  17                                                
   TMIN           Col  19 -  23                                                
   RAIN           Col  25 -  29                                                
   DEWP           Col  31 -  35                                                
   WIND           Col  37 -  41                                                
   PAR            Col  43 -  47                                                
   RHUM           Col  55 -  59                                                

 ENDRUN  YEAR DOY = 1992 305
 Normal end of run       47                                                    

******************************************************************************

*DSSAT Cropping System Model Ver. 4.7.5.008 -release  JAN 07, 2021 20:33:40

*RUN  48        : ERiMA DCC1                MZCER047 ETMZbako    1
 MODEL          : MZCER047 - Maize
 EXPERIMENT     : ETMZbako SN MELKSSAL
 DATA PATH      : C:\IRI\Python_Dash\ET_DSS_hist\TEST\
 TREATMENT  1   : ERiMA DCC1                MZCER047
  

 IPWTH   YEAR DOY = 1993 165
 BAKO9301.WTH                                                                  
 Found daily weather data headers for:                                         
   SRAD           Col   7 -  11                                                
   TMAX           Col  13 -  17                                                
   TMIN           Col  19 -  23                                                
   RAIN           Col  25 -  29                                                
   DEWP           Col  31 -  35                                                
   WIND           Col  37 -  41                                                
   PAR            Col  43 -  47                                                
   RHUM           Col  55 -  59                                                

 ENDRUN  YEAR DOY = 1993 307
 Normal end of run       48                                                    

******************************************************************************

*DSSAT Cropping System Model Ver. 4.7.5.008 -release  JAN 07, 2021 20:33:40

*RUN  49        : ERiMA DCC1                MZCER047 ETMZbako    1
 MODEL          : MZCER047 - Maize
 EXPERIMENT     : ETMZbako SN MELKSSAL
 DATA PATH      : C:\IRI\Python_Dash\ET_DSS_hist\TEST\
 TREATMENT  1   : ERiMA DCC1                MZCER047
  

 IPWTH   YEAR DOY = 1994 165
 BAKO9401.WTH                                                                  
 Found daily weather data headers for:                                         
   SRAD           Col   7 -  11                                                
   TMAX           Col  13 -  17                                                
   TMIN           Col  19 -  23                                                
   RAIN           Col  25 -  29                                                
   DEWP           Col  31 -  35                                                
   WIND           Col  37 -  41                                                
   PAR            Col  43 -  47                                                
   RHUM           Col  55 -  59                                                

 ENDRUN  YEAR DOY = 1994 309
 Normal end of run       49                                                    

******************************************************************************

*DSSAT Cropping System Model Ver. 4.7.5.008 -release  JAN 07, 2021 20:33:40

*RUN  50        : ERiMA DCC1                MZCER047 ETMZbako    1
 MODEL          : MZCER047 - Maize
 EXPERIMENT     : ETMZbako SN MELKSSAL
 DATA PATH      : C:\IRI\Python_Dash\ET_DSS_hist\TEST\
 TREATMENT  1   : ERiMA DCC1                MZCER047
  

 IPWTH   YEAR DOY = 1995 165
 BAKO9501.WTH                                                                  
 Found daily weather data headers for:                                         
   SRAD           Col   7 -  11                                                
   TMAX           Col  13 -  17                                                
   TMIN           Col  19 -  23                                                
   RAIN           Col  25 -  29                                                
   DEWP           Col  31 -  35                                                
   WIND           Col  37 -  41                                                
   PAR            Col  43 -  47                                                
   RHUM           Col  55 -  59                                                

 ENDRUN  YEAR DOY = 1995 308
 Normal end of run       50                                                    

******************************************************************************

*DSSAT Cropping System Model Ver. 4.7.5.008 -release  JAN 07, 2021 20:33:40

*RUN  51        : ERiMA DCC1                MZCER047 ETMZbako    1
 MODEL          : MZCER047 - Maize
 EXPERIMENT     : ETMZbako SN MELKSSAL
 DATA PATH      : C:\IRI\Python_Dash\ET_DSS_hist\TEST\
 TREATMENT  1   : ERiMA DCC1                MZCER047
  

 IPWTH   YEAR DOY = 1996 165
 BAKO9601.WTH                                                                  
 Found daily weather data headers for:                                         
   SRAD           Col   7 -  11                                                
   TMAX           Col  13 -  17                                                
   TMIN           Col  19 -  23                                                
   RAIN           Col  25 -  29                                                
   DEWP           Col  31 -  35                                                
   WIND           Col  37 -  41                                                
   PAR            Col  43 -  47                                                
   RHUM           Col  55 -  59                                                

 ENDRUN  YEAR DOY = 1996 308
 Normal end of run       51                                                    

******************************************************************************

*DSSAT Cropping System Model Ver. 4.7.5.008 -release  JAN 07, 2021 20:33:40

*RUN  52        : ERiMA DCC1                MZCER047 ETMZbako    1
 MODEL          : MZCER047 - Maize
 EXPERIMENT     : ETMZbako SN MELKSSAL
 DATA PATH      : C:\IRI\Python_Dash\ET_DSS_hist\TEST\
 TREATMENT  1   : ERiMA DCC1                MZCER047
  

 IPWTH   YEAR DOY = 1997 165
 BAKO9701.WTH                                                                  
 Found daily weather data headers for:                                         
   SRAD           Col   7 -  11                                                
   TMAX           Col  13 -  17                                                
   TMIN           Col  19 -  23                                                
   RAIN           Col  25 -  29                                                
   DEWP           Col  31 -  35                                                
[...]
 EXPERIMENT     : ETMZbako SN MELKSSAL
 DATA PATH      : C:\IRI\Python_Dash\ET_DSS_hist\TEST\
 TREATMENT  1   : ERiMA DCC1                MZCER047
  

 IPWTH   YEAR DOY = 2001 165
 BAKO0101.WTH                                                                  
 Found daily weather data headers for:                                         
   SRAD           Col   7 -  11                                                
   TMAX           Col  13 -  17                                                
   TMIN           Col  19 -  23                                                
   RAIN           Col  25 -  29                                                
   DEWP           Col  31 -  35                                                
   WIND           Col  37 -  41                                                
   PAR            Col  43 -  47                                                
   RHUM           Col  55 -  59                                                

 ENDRUN  YEAR DOY = 2001 305
 Normal end of run       56                                                    

******************************************************************************

*DSSAT Cropping System Model Ver. 4.7.5.008 -release  JAN 07, 2021 20:33:40

*RUN  57        : ERiMA DCC1                MZCER047 ETMZbako    1
 MODEL          : MZCER047 - Maize
 EXPERIMENT     : ETMZbako SN MELKSSAL
 DATA PATH      : C:\IRI\Python_Dash\ET_DSS_hist\TEST\
 TREATMENT  1   : ERiMA DCC1                MZCER047
  

 IPWTH   YEAR DOY = 2002 165
 BAKO0201.WTH                                                                  
 Found daily weather data headers for:                                         
   SRAD           Col   7 -  11                                                
   TMAX           Col  13 -  17                                                
   TMIN           Col  19 -  23                                                
   RAIN           Col  25 -  29                                                
   DEWP           Col  31 -  35                                                
   WIND           Col  37 -  41                                                
   PAR            Col  43 -  47                                                
   RHUM           Col  55 -  59                                                

 ENDRUN  YEAR DOY = 2002 302
 Normal end of run       57                                                    

******************************************************************************

*DSSAT Cropping System Model Ver. 4.7.5.008 -release  JAN 07, 2021 20:33:40

*RUN  58        : ERiMA DCC1                MZCER047 ETMZbako    1
 MODEL          : MZCER047 - Maize
 EXPERIMENT     : ETMZbako SN MELKSSAL
 DATA PATH      : C:\IRI\Python_Dash\ET_DSS_hist\TEST\
 TREATMENT  1   : ERiMA DCC1                MZCER047
  

 IPWTH   YEAR DOY = 2003 165
 BAKO0301.WTH                                                                  
 Found daily weather data headers for:                                         
   SRAD           Col   7 -  11                                                
   TMAX           Col  13 -  17                                                
   TMIN           Col  19 -  23                                                
   RAIN           Col  25 -  29                                                
   DEWP           Col  31 -  35                                                
   WIND           Col  37 -  41                                                
   PAR            Col  43 -  47                                                
   RHUM           Col  55 -  59                                                

 ENDRUN  YEAR DOY = 2003 309
 Normal end of run       58                                                    

******************************************************************************

*DSSAT Cropping System Model Ver. 4.7.5.008 -release  JAN 07, 2021 20:33:40

*RUN  59        : ERiMA DCC1                MZCER047 ETMZbako    1
 MODEL          : MZCER047 - Maize
 EXPERIMENT     : ETMZbako SN MELKSSAL
 DATA PATH      : C:\IRI\Python_Dash\ET_DSS_hist\TEST\
 TREATMENT  1   : ERiMA DCC1                MZCER047
  

 IPWTH   YEAR DOY = 2004 165
 BAKO0401.WTH                                                                  
 Found daily weather data headers for:                                         
   SRAD           Col   7 -  11                                                
   TMAX           Col  13 -  17                                                
   TMIN           Col  19 -  23                                                
   RAIN           Col  25 -  29                                                
   DEWP           Col  31 -  35                                                
   WIND           Col  37 -  41                                                
   PAR            Col  43 -  47                                                
   RHUM           Col  55 -  59                                                

 ENDRUN  YEAR DOY = 2004 307
 Normal end of run       59                                                    

******************************************************************************

*DSSAT Cropping System Model Ver. 4.7.5.008 -release  JAN 07, 2021 20:33:40

*RUN  60        : ERiMA DCC1                MZCER047 ETMZbako    1
 MODEL          : MZCER047 - Maize
 EXPERIMENT     : ETMZbako SN MELKSSAL
 DATA PATH      : C:\IRI\Python_Dash\ET_DSS_hist\TEST\
 TREATMENT  1   : ERiMA DCC1                MZCER047
  

 IPWTH   YEAR DOY = 2005 165
 BAKO0501.WTH                                                                  
 Found daily weather data headers for:                                         
   SRAD           Col   7 -  11                                                
   TMAX           Col  13 -  17                                                
   TMIN           Col  19 -  23                                                
   RAIN           Col  25 -  29                                                
   DEWP           Col  31 -  35                                                
   WIND           Col  37 -  41                                                
   PAR            Col  43 -  47                                                
   RHUM           Col  55 -  59                                                

 ENDRUN  YEAR DOY = 2005 297
 Normal end of run       60                                                    

******************************************************************************

*DSSAT Cropping System Model Ver. 4.7.5.008 -release  JAN 07, 2021 20:33:40

*RUN  61        : ERiMA DCC1                MZCER047 ETMZbako    1
 MODEL          : MZCER047 - Maize
 EXPERIMENT     : ETMZbako SN MELKSSAL
 DATA PATH      : C:\IRI\Python_Dash\ET_DSS_hist\TEST\
 TREATMENT  1   : ERiMA DCC1                MZCER047
  

 IPWTH   YEAR DOY = 2006 165
 BAKO0601.WTH                                                                  
 Found daily weather data headers for:                                         
   SRAD           Col   7 -  11                                                
   TMAX           Col  13 -  17                                                
   TMIN           Col  19 -  23                                                
   RAIN           Col  25 -  29                                                
   DEWP           Col  31 -  35                                                
   WIND           Col  37 -  41                                                
   PAR            Col  43 -  47                                                
   RHUM           Col  55 -  59                                                

 ENDRUN  YEAR DOY = 2006 303
 Normal end of run       61                                                    

******************************************************************************

*DSSAT Cropping System Model Ver. 4.7.5.008 -release  JAN 07, 2021 20:33:40

*RUN  62        : ERiMA DCC1                MZCER047 ETMZbako    1
 MODEL          : MZCER047 - Maize
 EXPERIMENT     : ETMZbako SN MELKSSAL
 DATA PATH      : C:\IRI\Python_Dash\ET_DSS_hist\TEST\
 TREATMENT  1   : ERiMA DCC1                MZCER047
  

 IPWTH   YEAR DOY = 2007 165
 BAKO0701.WTH                                                                  
 Found daily weather data headers for:                                         
   SRAD           Col   7 -  11                                                
   TMAX           Col  13 -  17                                                
   TMIN           Col  19 -  23                                                
   RAIN           Col  25 -  29                                                
   DEWP           Col  31 -  35                                                
   WIND           Col  37 -  41                                                
   PAR            Col  43 -  47                                                
   RHUM           Col  55 -  59                                                

 ENDRUN  YEAR DOY = 2007 310
 Normal end of run       62                                                    

******************************************************************************

*DSSAT Cropping System Model Ver. 4.7.5.008 -release  JAN 07, 2021 20:33:40

*RUN  63        : ERiMA DCC1                MZCER047 ETMZbako    1
 MODEL          : MZCER047 - Maize
 EXPERIMENT     : ETMZbako SN MELKSSAL
 DATA PATH      : C:\IRI\Python_Dash\ET_DSS_hist\TEST\
 TREATMENT  1   : ERiMA DCC1                MZCER047
  

 IPWTH   YEAR DOY = 2008 165
 BAKO0801.WTH                                                                  
 Found daily weather data headers for:                                         
   SRAD           Col   7 -  11                                                
   TMAX           Col  13 -  17                                                
   TMIN           Col  19 -  23                                                
   RAIN           Col  25 -  29                                                
   DEWP           Col  31 -  35                                                
   WIND           Col  37 -  41                                                
   PAR            Col  43 -  47                                                
   RHUM           Col  55 -  59                                                

 ENDRUN  YEAR DOY = 2008 305
 Normal end of run       63                                                    

******************************************************************************

*DSSAT Cropping System Model Ver. 4.7.5.008 -release  JAN 07, 2021 20:33:40

*RUN  64        : ERiMA DCC1                MZCER047 ETMZbako    1
 MODEL          : MZCER047 - Maize
 EXPERIMENT     : ETMZbako SN MELKSSAL
 DATA PATH      : C:\IRI\Python_Dash\ET_DSS_hist\TEST\
 TREATMENT  1   : ERiMA DCC1                MZCER047
  

 IPWTH   YEAR DOY = 2009 165
 BAKO0901.WTH                                                                  
 Found daily weather data headers for:                                         
   SRAD           Col   7 -  11                                                
   TMAX           Col  13 -  17                                                
   TMIN           Col  19 -  23                                                
   RAIN           Col  25 -  29                                                
   DEWP           Col  31 -  35                                                
   WIND           Col  37 -  41                                                
   PAR            Col  43 -  47                                                
   RHUM           Col  55 -  59                                                

 ENDRUN  YEAR DOY = 2009 318
 Normal end of run       64                                                    

******************************************************************************

*DSSAT Cropping System Model Ver. 4.7.5.008 -release  JAN 07, 2021 20:33:40

*RUN  65        : ERiMA DCC1                MZCER047 ETMZbako    1
 MODEL          : MZCER047 - Maize
 EXPERIMENT     : ETMZbako SN MELKSSAL
 DATA PATH      : C:\IRI\Python_Dash\ET_DSS_hist\TEST\
 TREATMENT  1   : ERiMA DCC1                MZCER047
  

 IPWTH   YEAR DOY = 2010 165
 BAKO1001.WTH                                                                  
 Found daily weather data headers for:                                         
   SRAD           Col   7 -  11                                                
   TMAX           Col  13 -  17                                                
   TMIN           Col  19 -  23                                                
   RAIN           Col  25 -  29                                                
   DEWP           Col  31 -  35                                                
   WIND           Col  37 -  41                                                
   PAR            Col  43 -  47                                                
   RHUM           Col  55 -  59                                                

 ENDRUN  YEAR DOY = 2010 307
 Normal end of run       65                                                    

******************************************************************************

*DSSAT Cropping System Model Ver. 4.7.5.008 -release  JAN 07, 2021 20:33:40

*RUN  66        : ERiMA DCC1                MZCER047 ETMZbako    1
 MODEL          : MZCER047 - Maize
 EXPERIMENT     : ETMZbako SN MELKSSAL
 DATA PATH      : C:\IRI\Python_Dash\ET_DSS_hist\TEST\
 TREATMENT  1   : ERiMA DCC1                MZCER047
  

 IPWTH   YEAR DOY = 2011 165
 BAKO1101.WTH                                                                  
 Found daily weather data headers for:                                         
   SRAD           Col   7 -  11                                                
   TMAX           Col  13 -  17                                                
   TMIN           Col  19 -  23                                                
   RAIN           Col  25 -  29                                                
   DEWP           Col  31 -  35                                                
   WIND           Col  37 -  41                                                
   PAR            Col  43 -  47                                                
   RHUM           Col  55 -  59                                                

 ENDRUN  YEAR DOY = 2011 306
 Normal end of run       66                                                    

******************************************************************************

*DSSAT Cropping System Model Ver. 4.7.5.008 -release  JAN 07, 2021 20:33:40

*RUN  67        : ERiMA DCC1                MZCER047 ETMZbako    1
 MODEL          : MZCER047 - Maize
 EXPERIMENT     : ETMZbako SN MELKSSAL
 DATA PATH      : C:\IRI\Python_Dash\ET_DSS_hist\TEST\
 TREATMENT  1   : ERiMA DCC1                MZCER047
  

 IPWTH   YEAR DOY = 2012 165
 BAKO1201.WTH                                                                  
 Found daily weather data headers for:                                         
   SRAD           Col   7 -  11                                                
   TMAX           Col  13 -  17                                                
   TMIN           Col  19 -  23                                                
   RAIN           Col  25 -  29                                                
   DEWP           Col  31 -  35                                                
   WIND           Col  37 -  41                                                
   PAR            Col  43 -  47                                                
   RHUM           Col  55 -  59                                                

 ENDRUN  YEAR DOY = 2012 302
 Normal end of run       67                                                    

******************************************************************************

*DSSAT Cropping System Model Ver. 4.7.5.008 -release  JAN 07, 2021 20:33:40

*RUN  68        : ERiMA DCC1                MZCER047 ETMZbako    1
 MODEL          : MZCER047 - Maize
 EXPERIMENT     : ETMZbako SN MELKSSAL
 DATA PATH      : C:\IRI\Python_Dash\ET_DSS_hist\TEST\
 TREATMENT  1   : ERiMA DCC1                MZCER047
  

 IPWTH   YEAR DOY = 2013 165
 BAKO1301.WTH                                                                  
 Found daily weather data headers for:                                         
   SRAD           Col   7 -  11                                                
   TMAX           Col  13 -  17                                                
   TMIN           Col  19 -  23                                                
   RAIN           Col  25 -  29                                                
   DEWP           Col  31 -  35                                                
   WIND           Col  37 -  41                                                
   PAR            Col  43 -  47                                                
   RHUM           Col  55 -  59                                                

 ENDRUN  YEAR DOY = 2013 311
 Normal end of run       68                                                    

******************************************************************************

*DSSAT Cropping System Model Ver. 4.7.5.008 -release  JAN 07, 2021 20:33:40

*RUN  69        : ERiMA DCC1                MZCER047 ETMZbako    1
 MODEL          : MZCER047 - Maize
 EXPERIMENT     : ETMZbako SN MELKSSAL
 DATA PATH      : C:\IRI\Python_Dash\ET_DSS_hist\TEST\
 TREATMENT  1   : ERiMA DCC1                MZCER047
  

 IPWTH   YEAR DOY = 2014 165
 BAKO1401.WTH                                                                  
 Found daily weather data headers for:                                         
   SRAD           Col   7 -  11                                                
   TMAX           Col  13 -  17                                                
   TMIN           Col  19 -  23                                                
   RAIN           Col  25 -  29                                                
   DEWP           Col  31 -  35                                                
   WIND           Col  37 -  41                                                
   PAR            Col  43 -  47                                                
   RHUM           Col  55 -  59                                                

 ENDRUN  YEAR DOY = 2014 305
 Normal end of run       69                                                    

******************************************************************************

*DSSAT Cropping System Model Ver. 4.7.5.008 -release  JAN 07, 2021 20:33:40

*RUN  70        : ERiMA DCC1                MZCER047 ETMZbako    1
 MODEL          : MZCER047 - Maize
 EXPERIMENT     : ETMZbako SN MELKSSAL
 DATA PATH      : C:\IRI\Python_Dash\ET_DSS_hist\TEST\
 TREATMENT  1   : ERiMA DCC1                MZCER047
  

 IPWTH   YEAR DOY = 2015 165
 BAKO1501.WTH                                                                  
 Found daily weather data headers for:                                         
   SRAD           Col   7 -  11                                                
   TMAX           Col  13 -  17                                                
   TMIN           Col  19 -  23                                                
   RAIN           Col  25 -  29                                                
   DEWP           Col  31 -  35                                                
   WIND           Col  37 -  41                                                
   PAR            Col  43 -  47                                                
   RHUM           Col  55 -  59                                                

 ENDRUN  YEAR DOY = 2015 305
 Normal end of run       70                                                    
