*DSSAT Cropping System Model Ver. 4.7.5.008   -release    MAY 04, 2021; 17:13:31

 Unit  Filename
  501  OPCLR
   21  FILEIO
   14  BATCH 
  502  SIMCDE
   25  DSPRO
   22  DTACDE
  503  RUNLST
   11  FILEW
   93  OUTO
  118  WARNING.OUT
   10  FILEC
   39  OUTG
   40  OUTPN
  504  OUTS
   89  SEVAL
  505  FILECO2
   52  OUTWTH
   32  OUTET
   13  FILESS
   64  N2O.OUT   
   43  SoilNi.OUT
   55  Mulch.OUT
  107  SWBAL
   48  OUTWAT
    8  FILEA
  117  OUTBAT
  114  OUTINFO
