*MANAGEMENT OPERATIONS EVENT SUMMARY

*DSSAT Cropping System Model Ver. 4.7.5.008 -release  JAN 07, 2021 20:33:24
!---------------------------------------------------------------------------------------------
@RUN Date........  DOY    DAS    DAP  CR  Stage         Operation       Quantities
!---------------------------------------------------------------------------------------------
   1 JUN 14, 1981  165      1      0  MZ  14 Start Sim 
   1 JUN 15, 1981  166      2      0  MZ                Planting       
   1 JUN 15, 1981  166      2      0  MZ  07 Sowing    
   1 JUN 15, 1981  166      2      0  MZ                Fertilizer         30. kg[N]/ha 
   1 JUN 16, 1981  167      3      1  MZ  08 Germinate 
   1 JUN 20, 1981  171      7      5  MZ  09 Emergence 
   1 JUN 27, 1981  178     14     12  MZ  01 End Juveni
   1 JUL  2, 1981  183     19     17  MZ  02 Floral Ini
   1 JUL 30, 1981  211     47     45  MZ                Fertilizer         30. kg[N]/ha 
   1 AUG  3, 1981  215     51     49  MZ  03 75% Silkin
   1 AUG 17, 1981  229     65     63  MZ  04 Beg Gr Fil
   1 SEP 26, 1981  269    105    103  MZ  05 End Gr Fil
   1 SEP 29, 1981  272    108    106  MZ  16 Harvest   
   1 SEP 29, 1981  272    108    106  MZ                Harvest Yield    4634. kg/ha
 

*DSSAT Cropping System Model Ver. 4.7.5.008 -release  JAN 07, 2021 20:33:24
!---------------------------------------------------------------------------------------------
@RUN Date........  DOY    DAS    DAP  CR  Stage         Operation       Quantities
!---------------------------------------------------------------------------------------------
   2 JUN 14, 1982  165      1      0  MZ  14 Start Sim 
   2 JUN 15, 1982  166      2      0  MZ                Planting       
   2 JUN 15, 1982  166      2      0  MZ  07 Sowing    
   2 JUN 15, 1982  166      2      0  MZ                Fertilizer         30. kg[N]/ha 
   2 JUN 16, 1982  167      3      1  MZ  08 Germinate 
   2 JUN 21, 1982  172      8      6  MZ  09 Emergence 
   2 JUN 28, 1982  179     15     13  MZ  01 End Juveni
   2 JUL  3, 1982  184     20     18  MZ  02 Floral Ini
   2 JUL 30, 1982  211     47     45  MZ                Fertilizer         30. kg[N]/ha 
   2 AUG  4, 1982  216     52     50  MZ  03 75% Silkin
   2 AUG 18, 1982  230     66     64  MZ  04 Beg Gr Fil
   2 SEP 26, 1982  269    105    103  MZ  05 End Gr Fil
   2 SEP 29, 1982  272    108    106  MZ  16 Harvest   
   2 SEP 29, 1982  272    108    106  MZ                Harvest Yield    4174. kg/ha
 

*DSSAT Cropping System Model Ver. 4.7.5.008 -release  JAN 07, 2021 20:33:24
!---------------------------------------------------------------------------------------------
@RUN Date........  DOY    DAS    DAP  CR  Stage         Operation       Quantities
!---------------------------------------------------------------------------------------------
   3 JUN 14, 1983  165      1      0  MZ  14 Start Sim 
   3 JUN 15, 1983  166      2      0  MZ                Planting       
   3 JUN 15, 1983  166      2      0  MZ  07 Sowing    
   3 JUN 15, 1983  166      2      0  MZ                Fertilizer         30. kg[N]/ha 
   3 JUN 16, 1983  167      3      1  MZ  08 Germinate 
   3 JUN 21, 1983  172      8      6  MZ  09 Emergence 
   3 JUN 27, 1983  178     14     12  MZ  01 End Juveni
   3 JUL  2, 1983  183     19     17  MZ  02 Floral Ini
   3 JUL 30, 1983  211     47     45  MZ                Fertilizer         30. kg[N]/ha 
   3 JUL 31, 1983  212     48     46  MZ  03 75% Silkin
   3 AUG 14, 1983  226     62     60  MZ  04 Beg Gr Fil
   3 SEP 22, 1983  265    101     99  MZ  05 End Gr Fil
   3 SEP 24, 1983  267    103    101  MZ  16 Harvest   
   3 SEP 24, 1983  267    103    101  MZ                Harvest Yield    4573. kg/ha
 

*DSSAT Cropping System Model Ver. 4.7.5.008 -release  JAN 07, 2021 20:33:24
!---------------------------------------------------------------------------------------------
@RUN Date........  DOY    DAS    DAP  CR  Stage         Operation       Quantities
!---------------------------------------------------------------------------------------------
   4 JUN 13, 1984  165      1      0  MZ  14 Start Sim 
   4 JUN 14, 1984  166      2      0  MZ                Planting       
   4 JUN 14, 1984  166      2      0  MZ  07 Sowing    
   4 JUN 14, 1984  166      2      0  MZ                Fertilizer         30. kg[N]/ha 
   4 JUN 15, 1984  167      3      1  MZ  08 Germinate 
   4 JUN 20, 1984  172      8      6  MZ  09 Emergence 
   4 JUN 27, 1984  179     15     13  MZ  01 End Juveni
   4 JUL  2, 1984  184     20     18  MZ  02 Floral Ini
   4 JUL 29, 1984  211     47     45  MZ                Fertilizer         30. kg[N]/ha 
   4 AUG  3, 1984  216     52     50  MZ  03 75% Silkin
   4 AUG 17, 1984  230     66     64  MZ  04 Beg Gr Fil
   4 SEP 26, 1984  270    106    104  MZ  05 End Gr Fil
   4 SEP 28, 1984  272    108    106  MZ  16 Harvest   
   4 SEP 28, 1984  272    108    106  MZ                Harvest Yield    5023. kg/ha
 

*DSSAT Cropping System Model Ver. 4.7.5.008 -release  JAN 07, 2021 20:33:24
!---------------------------------------------------------------------------------------------
@RUN Date........  DOY    DAS    DAP  CR  Stage         Operation       Quantities
!---------------------------------------------------------------------------------------------
   5 JUN 14, 1985  165      1      0  MZ  14 Start Sim 
   5 JUN 15, 1985  166      2      0  MZ                Planting       
   5 JUN 15, 1985  166      2      0  MZ  07 Sowing    
   5 JUN 15, 1985  166      2      0  MZ                Fertilizer         30. kg[N]/ha 
   5 JUN 16, 1985  167      3      1  MZ  08 Germinate 
   5 JUN 21, 1985  172      8      6  MZ  09 Emergence 
   5 JUN 28, 1985  179     15     13  MZ  01 End Juveni
   5 JUL  3, 1985  184     20     18  MZ  02 Floral Ini
   5 JUL 30, 1985  211     47     45  MZ                Fertilizer         30. kg[N]/ha 
   5 AUG  6, 1985  218     54     52  MZ  03 75% Silkin
   5 AUG 21, 1985  233     69     67  MZ  04 Beg Gr Fil
   5 OCT  2, 1985  275    111    109  MZ  05 End Gr Fil
   5 OCT  4, 1985  277    113    111  MZ  16 Harvest   
   5 OCT  4, 1985  277    113    111  MZ                Harvest Yield    5188. kg/ha
 

*DSSAT Cropping System Model Ver. 4.7.5.008 -release  JAN 07, 2021 20:33:24
!---------------------------------------------------------------------------------------------
@RUN Date........  DOY    DAS    DAP  CR  Stage         Operation       Quantities
!---------------------------------------------------------------------------------------------
   6 JUN 14, 1986  165      1      0  MZ  14 Start Sim 
   6 JUN 15, 1986  166      2      0  MZ                Planting       
   6 JUN 15, 1986  166      2      0  MZ  07 Sowing    
   6 JUN 15, 1986  166      2      0  MZ                Fertilizer         30. kg[N]/ha 
   6 JUN 16, 1986  167      3      1  MZ  08 Germinate 
   6 JUN 21, 1986  172      8      6  MZ  09 Emergence 
   6 JUN 29, 1986  180     16     14  MZ  01 End Juveni
   6 JUL  4, 1986  185     21     19  MZ  02 Floral Ini
   6 JUL 30, 1986  211     47     45  MZ                Fertilizer         30. kg[N]/ha 
   6 AUG  6, 1986  218     54     52  MZ  03 75% Silkin
   6 AUG 20, 1986  232     68     66  MZ  04 Beg Gr Fil
   6 SEP 30, 1986  273    109    107  MZ  05 End Gr Fil
   6 OCT  3, 1986  276    112    110  MZ  16 Harvest   
   6 OCT  3, 1986  276    112    110  MZ                Harvest Yield    4709. kg/ha
 

*DSSAT Cropping System Model Ver. 4.7.5.008 -release  JAN 07, 2021 20:33:24
!---------------------------------------------------------------------------------------------
@RUN Date........  DOY    DAS    DAP  CR  Stage         Operation       Quantities
!---------------------------------------------------------------------------------------------
   7 JUN 14, 1987  165      1      0  MZ  14 Start Sim 
   7 JUN 15, 1987  166      2      0  MZ                Planting       
   7 JUN 15, 1987  166      2      0  MZ  07 Sowing    
   7 JUN 15, 1987  166      2      0  MZ                Fertilizer         30. kg[N]/ha 
   7 JUN 16, 1987  167      3      1  MZ  08 Germinate 
   7 JUN 21, 1987  172      8      6  MZ  09 Emergence 
   7 JUN 27, 1987  178     14     12  MZ  01 End Juveni
   7 JUL  2, 1987  183     19     17  MZ  02 Floral Ini
   7 JUL 30, 1987  211     47     45  MZ                Fertilizer         30. kg[N]/ha 
   7 JUL 31, 1987  212     48     46  MZ  03 75% Silkin
   7 AUG 13, 1987  225     61     59  MZ  04 Beg Gr Fil
   7 SEP 18, 1987  261     97     95  MZ  05 End Gr Fil
   7 SEP 21, 1987  264    100     98  MZ  16 Harvest   
   7 SEP 21, 1987  264    100     98  MZ                Harvest Yield    1976. kg/ha
 

*DSSAT Cropping System Model Ver. 4.7.5.008 -release  JAN 07, 2021 20:33:24
!---------------------------------------------------------------------------------------------
@RUN Date........  DOY    DAS    DAP  CR  Stage         Operation       Quantities
!---------------------------------------------------------------------------------------------
   8 JUN 13, 1988  165      1      0  MZ  14 Start Sim 
   8 JUN 14, 1988  166      2      0  MZ                Planting       
   8 JUN 14, 1988  166      2      0  MZ  07 Sowing    
   8 JUN 14, 1988  166      2      0  MZ                Fertilizer         30. kg[N]/ha 
   8 JUN 15, 1988  167      3      1  MZ  08 Germinate 
   8 JUN 19, 1988  171      7      5  MZ  09 Emergence 
   8 JUN 25, 1988  177     13     11  MZ  01 End Juveni
   8 JUN 30, 1988  182     18     16  MZ  02 Floral Ini
   8 JUL 29, 1988  211     47     45  MZ                Fertilizer         30. kg[N]/ha 
   8 JUL 31, 1988  213     49     47  MZ  03 75% Silkin
   8 AUG 14, 1988  227     63     61  MZ  04 Beg Gr Fil
   8 SEP 23, 1988  267    103    101  MZ  05 End Gr Fil
   8 SEP 26, 1988  270    106    104  MZ  16 Harvest   
   8 SEP 26, 1988  270    106    104  MZ                Harvest Yield    4103. kg/ha
 

*DSSAT Cropping System Model Ver. 4.7.5.008 -release  JAN 07, 2021 20:33:24
!---------------------------------------------------------------------------------------------
@RUN Date........  DOY    DAS    DAP  CR  Stage         Operation       Quantities
!---------------------------------------------------------------------------------------------
   9 JUN 14, 1989  165      1      0  MZ  14 Start Sim 
   9 JUN 15, 1989  166      2      0  MZ                Planting       
   9 JUN 15, 1989  166      2      0  MZ  07 Sowing    
   9 JUN 15, 1989  166      2      0  MZ                Fertilizer         30. kg[N]/ha 
   9 JUN 16, 1989  167      3      1  MZ  08 Germinate 
   9 JUN 21, 1989  172      8      6  MZ  09 Emergence 
   9 JUN 27, 1989  178     14     12  MZ  01 End Juveni
   9 JUL  2, 1989  183     19     17  MZ  02 Floral Ini
   9 JUL 30, 1989  211     47     45  MZ                Fertilizer         30. kg[N]/ha 
   9 AUG  3, 1989  215     51     49  MZ  03 75% Silkin
   9 AUG 17, 1989  229     65     63  MZ  04 Beg Gr Fil
   9 SEP 24, 1989  267    103    101  MZ  05 End Gr Fil
   9 SEP 27, 1989  270    106    104  MZ  16 Harvest   
   9 SEP 27, 1989  270    106    104  MZ                Harvest Yield    4466. kg/ha
 

*DSSAT Cropping System Model Ver. 4.7.5.008 -release  JAN 07, 2021 20:33:24
!---------------------------------------------------------------------------------------------
@RUN Date........  DOY    DAS    DAP  CR  Stage         Operation       Quantities
!---------------------------------------------------------------------------------------------
  10 JUN 14, 1990  165      1      0  MZ  14 Start Sim 
  10 JUN 15, 1990  166      2      0  MZ                Planting       
  10 JUN 15, 1990  166      2      0  MZ  07 Sowing    
  10 JUN 15, 1990  166      2      0  MZ                Fertilizer         30. kg[N]/ha 
  10 JUN 16, 1990  167      3      1  MZ  08 Germinate 
  10 JUN 20, 1990  171      7      5  MZ  09 Emergence 
  10 JUN 27, 1990  178     14     12  MZ  01 End Juveni
  10 JUL  2, 1990  183     19     17  MZ  02 Floral Ini
  10 JUL 30, 1990  211     47     45  MZ                Fertilizer         30. kg[N]/ha 
  10 AUG  2, 1990  214     50     48  MZ  03 75% Silkin
  10 AUG 16, 1990  228     64     62  MZ  04 Beg Gr Fil
  10 SEP 24, 1990  267    103    101  MZ  05 End Gr Fil
  10 SEP 27, 1990  270    106    104  MZ  16 Harvest   
  10 SEP 27, 1990  270    106    104  MZ                Harvest Yield    4756. kg/ha
 

*DSSAT Cropping System Model Ver. 4.7.5.008 -release  JAN 07, 2021 20:33:24
!---------------------------------------------------------------------------------------------
@RUN Date........  DOY    DAS    DAP  CR  Stage         Operation       Quantities
!---------------------------------------------------------------------------------------------
  11 JUN 14, 1991  165      1      0  MZ  14 Start Sim 
  11 JUN 15, 1991  166      2      0  MZ                Planting       
  11 JUN 15, 1991  166      2      0  MZ  07 Sowing    
  11 JUN 15, 1991  166      2      0  MZ                Fertilizer         30. kg[N]/ha 
  11 JUN 16, 1991  167      3      1  MZ  08 Germinate 
  11 JUN 20, 1991  171      7      5  MZ  09 Emergence 
  11 JUN 27, 1991  178     14     12  MZ  01 End Juveni
  11 JUL  2, 1991  183     19     17  MZ  02 Floral Ini
  11 JUL 30, 1991  211     47     45  MZ                Fertilizer         30. kg[N]/ha 
  11 AUG  3, 1991  215     51     49  MZ  03 75% Silkin
  11 AUG 17, 1991  229     65     63  MZ  04 Beg Gr Fil
  11 SEP 23, 1991  266    102    100  MZ  05 End Gr Fil
  11 SEP 26, 1991  269    105    103  MZ  16 Harvest   
  11 SEP 26, 1991  269    105    103  MZ                Harvest Yield    4619. kg/ha
 

*DSSAT Cropping System Model Ver. 4.7.5.008 -release  JAN 07, 2021 20:33:24
!---------------------------------------------------------------------------------------------
@RUN Date........  DOY    DAS    DAP  CR  Stage         Operation       Quantities
!---------------------------------------------------------------------------------------------
  12 JUN 13, 1992  165      1      0  MZ  14 Start Sim 
  12 JUN 14, 1992  166      2      0  MZ                Planting       
  12 JUN 14, 1992  166      2      0  MZ  07 Sowing    
  12 JUN 14, 1992  166      2      0  MZ                Fertilizer         30. kg[N]/ha 
  12 JUN 15, 1992  167      3      1  MZ  08 Germinate 
  12 JUN 19, 1992  171      7      5  MZ  09 Emergence 
  12 JUN 26, 1992  178     14     12  MZ  01 End Juveni
  12 JUL  1, 1992  183     19     17  MZ  02 Floral Ini
  12 JUL 29, 1992  211     47     45  MZ                Fertilizer         30. kg[N]/ha 
  12 JUL 31, 1992  213     49     47  MZ  03 75% Silkin
  12 AUG 14, 1992  227     63     61  MZ  04 Beg Gr Fil
  12 SEP 25, 1992  269    105    103  MZ  05 End Gr Fil
  12 SEP 27, 1992  271    107    105  MZ  16 Harvest   
  12 SEP 27, 1992  271    107    105  MZ                Harvest Yield    4561. kg/ha
 

*DSSAT Cropping System Model Ver. 4.7.5.008 -release  JAN 07, 2021 20:33:24
!---------------------------------------------------------------------------------------------
@RUN Date........  DOY    DAS    DAP  CR  Stage         Operation       Quantities
!---------------------------------------------------------------------------------------------
  13 JUN 14, 1993  165      1      0  MZ  14 Start Sim 
  13 JUN 15, 1993  166      2      0  MZ                Planting       
  13 JUN 15, 1993  166      2      0  MZ  07 Sowing    
  13 JUN 15, 1993  166      2      0  MZ                Fertilizer         30. kg[N]/ha 
  13 JUN 16, 1993  167      3      1  MZ  08 Germinate 
  13 JUN 21, 1993  172      8      6  MZ  09 Emergence 
  13 JUN 28, 1993  179     15     13  MZ  01 End Juveni
  13 JUL  3, 1993  184     20     18  MZ  02 Floral Ini
  13 JUL 30, 1993  211     47     45  MZ                Fertilizer         30. kg[N]/ha 
  13 AUG  5, 1993  217     53     51  MZ  03 75% Silkin
  13 AUG 18, 1993  230     66     64  MZ  04 Beg Gr Fil
  13 SEP 26, 1993  269    105    103  MZ  05 End Gr Fil
  13 SEP 29, 1993  272    108    106  MZ  16 Harvest   
  13 SEP 29, 1993  272    108    106  MZ                Harvest Yield    4910. kg/ha
 

*DSSAT Cropping System Model Ver. 4.7.5.008 -release  JAN 07, 2021 20:33:24
!---------------------------------------------------------------------------------------------
@RUN Date........  DOY    DAS    DAP  CR  Stage         Operation       Quantities
!---------------------------------------------------------------------------------------------
  14 JUN 14, 1994  165      1      0  MZ  14 Start Sim 
  14 JUN 15, 1994  166      2      0  MZ                Planting       
  14 JUN 15, 1994  166      2      0  MZ  07 Sowing    
  14 JUN 15, 1994  166      2      0  MZ                Fertilizer         30. kg[N]/ha 
  14 JUN 16, 1994  167      3      1  MZ  08 Germinate 
  14 JUN 20, 1994  171      7      5  MZ  09 Emergence 
  14 JUN 26, 1994  177     13     11  MZ  01 End Juveni
  14 JUL  1, 1994  182     18     16  MZ  02 Floral Ini
  14 JUL 30, 1994  211     47     45  MZ                Fertilizer         30. kg[N]/ha 
  14 AUG  2, 1994  214     50     48  MZ  03 75% Silkin
  14 AUG 16, 1994  228     64     62  MZ  04 Beg Gr Fil
  14 SEP 25, 1994  268    104    102  MZ  05 End Gr Fil
  14 SEP 28, 1994  271    107    105  MZ  16 Harvest   
  14 SEP 28, 1994  271    107    105  MZ                Harvest Yield    4447. kg/ha
 

*DSSAT Cropping System Model Ver. 4.7.5.008 -release  JAN 07, 2021 20:33:24
!---------------------------------------------------------------------------------------------
@RUN Date........  DOY    DAS    DAP  CR  Stage         Operation       Quantities
!---------------------------------------------------------------------------------------------
  15 JUN 14, 1995  165      1      0  MZ  14 Start Sim 
  15 JUN 15, 1995  166      2      0  MZ                Planting       
  15 JUN 15, 1995  166      2      0  MZ  07 Sowing    
  15 JUN 15, 1995  166      2      0  MZ                Fertilizer         30. kg[N]/ha 
  15 JUN 16, 1995  167      3      1  MZ  08 Germinate 
  15 JUN 20, 1995  171      7      5  MZ  09 Emergence 
  15 JUN 27, 1995  178     14     12  MZ  01 End Juveni
  15 JUL  2, 1995  183     19     17  MZ  02 Floral Ini
  15 JUL 30, 1995  211     47     45  MZ                Fertilizer         30. kg[N]/ha 
  15 AUG  3, 1995  215     51     49  MZ  03 75% Silkin
  15 AUG 17, 1995  229     65     63  MZ  04 Beg Gr Fil
  15 SEP 24, 1995  267    103    101  MZ  05 End Gr Fil
  15 SEP 26, 1995  269    105    103  MZ  16 Harvest   
  15 SEP 26, 1995  269    105    103  MZ                Harvest Yield    4386. kg/ha
 

*DSSAT Cropping System Model Ver. 4.7.5.008 -release  JAN 07, 2021 20:33:24
!---------------------------------------------------------------------------------------------
@RUN Date........  DOY    DAS    DAP  CR  Stage         Operation       Quantities
!---------------------------------------------------------------------------------------------
  16 JUN 13, 1996  165      1      0  MZ  14 Start Sim 
  16 JUN 14, 1996  166      2      0  MZ                Planting       
  16 JUN 14, 1996  166      2      0  MZ  07 Sowing    
  16 JUN 14, 1996  166      2      0  MZ                Fertilizer         30. kg[N]/ha 
  16 JUN 15, 1996  167      3      1  MZ  08 Germinate 
  16 JUN 20, 1996  172      8      6  MZ  09 Emergence 
  16 JUN 28, 1996  180     16     14  MZ  01 End Juveni
  16 JUL  3, 1996  185     21     19  MZ  02 Floral Ini
  16 JUL 29, 1996  211     47     45  MZ                Fertilizer         30. kg[N]/ha 
  16 AUG  5, 1996  218     54     52  MZ  03 75% Silkin
  16 AUG 20, 1996  233     69     67  MZ  04 Beg Gr Fil
  16 SEP 27, 1996  271    107    105  MZ  05 End Gr Fil
  16 SEP 29, 1996  273    109    107  MZ  16 Harvest   
  16 SEP 29, 1996  273    109    107  MZ                Harvest Yield    4742. kg/ha
 

*DSSAT Cropping System Model Ver. 4.7.5.008 -release  JAN 07, 2021 20:33:24
!---------------------------------------------------------------------------------------------
@RUN Date........  DOY    DAS    DAP  CR  Stage         Operation       Quantities
!---------------------------------------------------------------------------------------------
  17 JUN 14, 1997  165      1      0  MZ  14 Start Sim 
  17 JUN 15, 1997  166      2      0  MZ                Planting       
  17 JUN 15, 1997  166      2      0  MZ  07 Sowing    
  17 JUN 15, 1997  166      2      0  MZ                Fertilizer         30. kg[N]/ha 
  17 JUN 16, 1997  167      3      1  MZ  08 Germinate 
  17 JUN 21, 1997  172      8      6  MZ  09 Emergence 
  17 JUN 27, 1997  178     14     12  MZ  01 End Juveni
  17 JUL  2, 1997  183     19     17  MZ  02 Floral Ini
  17 JUL 30, 1997  211     47     45  MZ                Fertilizer         30. kg[N]/ha 
  17 AUG  2, 1997  214     50     48  MZ  03 75% Silkin
  17 AUG 15, 1997  227     63     61  MZ  04 Beg Gr Fil
  17 SEP 21, 1997  264    100     98  MZ  05 End Gr Fil
  17 SEP 24, 1997  267    103    101  MZ  16 Harvest   
  17 SEP 24, 1997  267    103    101  MZ                Harvest Yield    4361. kg/ha
 

*DSSAT Cropping System Model Ver. 4.7.5.008 -release  JAN 07, 2021 20:33:24
!---------------------------------------------------------------------------------------------
@RUN Date........  DOY    DAS    DAP  CR  Stage         Operation       Quantities
!---------------------------------------------------------------------------------------------
  18 JUN 14, 1998  165      1      0  MZ  14 Start Sim 
  18 JUN 15, 1998  166      2      0  MZ                Planting       
  18 JUN 15, 1998  166      2      0  MZ  07 Sowing    
  18 JUN 15, 1998  166      2      0  MZ                Fertilizer         30. kg[N]/ha 
  18 JUN 16, 1998  167      3      1  MZ  08 Germinate 
  18 JUN 20, 1998  171      7      5  MZ  09 Emergence 
  18 JUN 27, 1998  178     14     12  MZ  01 End Juveni
  18 JUL  2, 1998  183     19     17  MZ  02 Floral Ini
  18 JUL 30, 1998  211     47     45  MZ                Fertilizer         30. kg[N]/ha 
  18 AUG  3, 1998  215     51     49  MZ  03 75% Silkin
  18 AUG 16, 1998  228     64     62  MZ  04 Beg Gr Fil
  18 SEP 24, 1998  267    103    101  MZ  05 End Gr Fil
  18 SEP 27, 1998  270    106    104  MZ  16 Harvest   
  18 SEP 27, 1998  270    106    104  MZ                Harvest Yield    4292. kg/ha
 

*DSSAT Cropping System Model Ver. 4.7.5.008 -release  JAN 07, 2021 20:33:24
!---------------------------------------------------------------------------------------------
@RUN Date........  DOY    DAS    DAP  CR  Stage         Operation       Quantities
!---------------------------------------------------------------------------------------------
  19 JUN 14, 1999  165      1      0  MZ  14 Start Sim 
  19 JUN 15, 1999  166      2      0  MZ                Planting       
  19 JUN 15, 1999  166      2      0  MZ  07 Sowing    
  19 JUN 15, 1999  166      2      0  MZ                Fertilizer         30. kg[N]/ha 
  19 JUN 16, 1999  167      3      1  MZ  08 Germinate 
  19 JUN 20, 1999  171      7      5  MZ  09 Emergence 
  19 JUN 27, 1999  178     14     12  MZ  01 End Juveni
  19 JUL  2, 1999  183     19     17  MZ  02 Floral Ini
  19 JUL 30, 1999  211     47     45  MZ                Fertilizer         30. kg[N]/ha 
  19 AUG  3, 1999  215     51     49  MZ  03 75% Silkin
  19 AUG 19, 1999  231     67     65  MZ  04 Beg Gr Fil
  19 SEP 28, 1999  271    107    105  MZ  05 End Gr Fil
  19 OCT  1, 1999  274    110    108  MZ  16 Harvest   
  19 OCT  1, 1999  274    110    108  MZ                Harvest Yield    4637. kg/ha
 

*DSSAT Cropping System Model Ver. 4.7.5.008 -release  JAN 07, 2021 20:33:24
!---------------------------------------------------------------------------------------------
@RUN Date........  DOY    DAS    DAP  CR  Stage         Operation       Quantities
!---------------------------------------------------------------------------------------------
  20 JUN 13, 2000  165      1      0  MZ  14 Start Sim 
  20 JUN 14, 2000  166      2      0  MZ                Planting       
  20 JUN 14, 2000  166      2      0  MZ  07 Sowing    
  20 JUN 14, 2000  166      2      0  MZ                Fertilizer         30. kg[N]/ha 
  20 JUN 15, 2000  167      3      1  MZ  08 Germinate 
  20 JUN 19, 2000  171      7      5  MZ  09 Emergence 
  20 JUN 26, 2000  178     14     12  MZ  01 End Juveni
  20 JUL  1, 2000  183     19     17  MZ  02 Floral Ini
  20 JUL 29, 2000  211     47     45  MZ                Fertilizer         30. kg[N]/ha 
  20 JUL 31, 2000  213     49     47  MZ  03 75% Silkin
  20 AUG 14, 2000  227     63     61  MZ  04 Beg Gr Fil
  20 SEP 24, 2000  268    104    102  MZ  05 End Gr Fil
  20 SEP 27, 2000  271    107    105  MZ  16 Harvest   
  20 SEP 27, 2000  271    107    105  MZ                Harvest Yield    4651. kg/ha
 

*DSSAT Cropping System Model Ver. 4.7.5.008 -release  JAN 07, 2021 20:33:24
!---------------------------------------------------------------------------------------------
@RUN Date........  DOY    DAS    DAP  CR  Stage         Operation       Quantities
!---------------------------------------------------------------------------------------------
  21 JUN 14, 2001  165      1      0  MZ  14 Start Sim 
  21 JUN 15, 2001  166      2      0  MZ                Planting       
  21 JUN 15, 2001  166      2      0  MZ  07 Sowing    
  21 JUN 15, 2001  166      2      0  MZ                Fertilizer         30. kg[N]/ha 
  21 JUN 16, 2001  167      3      1  MZ  08 Germinate 
  21 JUN 20, 2001  171      7      5  MZ  09 Emergence 
  21 JUN 28, 2001  179     15     13  MZ  01 End Juveni
  21 JUL  3, 2001  184     20     18  MZ  02 Floral Ini
  21 JUL 30, 2001  211     47     45  MZ                Fertilizer         30. kg[N]/ha 
  21 AUG  5, 2001  217     53     51  MZ  03 75% Silkin
  21 AUG 19, 2001  231     67     65  MZ  04 Beg Gr Fil
  21 SEP 26, 2001  269    105    103  MZ  05 End Gr Fil
  21 SEP 28, 2001  271    107    105  MZ  16 Harvest   
  21 SEP 28, 2001  271    107    105  MZ                Harvest Yield    4293. kg/ha
 

*DSSAT Cropping System Model Ver. 4.7.5.008 -release  JAN 07, 2021 20:33:24
!---------------------------------------------------------------------------------------------
@RUN Date........  DOY    DAS    DAP  CR  Stage         Operation       Quantities
!---------------------------------------------------------------------------------------------
  22 JUN 14, 2002  165      1      0  MZ  14 Start Sim 
  22 JUN 15, 2002  166      2      0  MZ                Planting       
  22 JUN 15, 2002  166      2      0  MZ  07 Sowing    
  22 JUN 15, 2002  166      2      0  MZ                Fertilizer         30. kg[N]/ha 
  22 JUN 16, 2002  167      3      1  MZ  08 Germinate 
  22 JUN 20, 2002  171      7      5  MZ  09 Emergence 
  22 JUN 27, 2002  178     14     12  MZ  01 End Juveni
  22 JUL  2, 2002  183     19     17  MZ  02 Floral Ini
  22 JUL 30, 2002  211     47     45  MZ                Fertilizer         30. kg[N]/ha 
  22 JUL 31, 2002  212     48     46  MZ  03 75% Silkin
  22 AUG 14, 2002  226     62     60  MZ  04 Beg Gr Fil
  22 SEP 21, 2002  264    100     98  MZ  05 End Gr Fil
  22 SEP 24, 2002  267    103    101  MZ  16 Harvest   
  22 SEP 24, 2002  267    103    101  MZ                Harvest Yield    2930. kg/ha
 

*DSSAT Cropping System Model Ver. 4.7.5.008 -release  JAN 07, 2021 20:33:24
!---------------------------------------------------------------------------------------------
@RUN Date........  DOY    DAS    DAP  CR  Stage         Operation       Quantities
!---------------------------------------------------------------------------------------------
  23 JUN 14, 2003  165      1      0  MZ  14 Start Sim 
  23 JUN 15, 2003  166      2      0  MZ                Planting       
  23 JUN 15, 2003  166      2      0  MZ  07 Sowing    
  23 JUN 15, 2003  166      2      0  MZ                Fertilizer         30. kg[N]/ha 
  23 JUN 16, 2003  167      3      1  MZ  08 Germinate 
  23 JUN 20, 2003  171      7      5  MZ  09 Emergence 
  23 JUN 27, 2003  178     14     12  MZ  01 End Juveni
  23 JUL  2, 2003  183     19     17  MZ  02 Floral Ini
  23 JUL 30, 2003  211     47     45  MZ                Fertilizer         30. kg[N]/ha 
  23 AUG  3, 2003  215     51     49  MZ  03 75% Silkin
  23 AUG 17, 2003  229     65     63  MZ  04 Beg Gr Fil
  23 SEP 23, 2003  266    102    100  MZ  05 End Gr Fil
  23 SEP 26, 2003  269    105    103  MZ  16 Harvest   
  23 SEP 26, 2003  269    105    103  MZ                Harvest Yield    3889. kg/ha
 

*DSSAT Cropping System Model Ver. 4.7.5.008 -release  JAN 07, 2021 20:33:24
!---------------------------------------------------------------------------------------------
@RUN Date........  DOY    DAS    DAP  CR  Stage         Operation       Quantities
!---------------------------------------------------------------------------------------------
  24 JUN 13, 2004  165      1      0  MZ  14 Start Sim 
  24 JUN 14, 2004  166      2      0  MZ                Planting       
  24 JUN 14, 2004  166      2      0  MZ  07 Sowing    
  24 JUN 14, 2004  166      2      0  MZ                Fertilizer         30. kg[N]/ha 
  24 JUN 15, 2004  167      3      1  MZ  08 Germinate 
  24 JUN 20, 2004  172      8      6  MZ  09 Emergence 
  24 JUN 27, 2004  179     15     13  MZ  01 End Juveni
  24 JUL  2, 2004  184     20     18  MZ  02 Floral Ini
  24 JUL 29, 2004  211     47     45  MZ                Fertilizer         30. kg[N]/ha 
  24 AUG  2, 2004  215     51     49  MZ  03 75% Silkin
  24 AUG 16, 2004  229     65     63  MZ  04 Beg Gr Fil
  24 SEP 23, 2004  267    103    101  MZ  05 End Gr Fil
  24 SEP 25, 2004  269    105    103  MZ  16 Harvest   
  24 SEP 25, 2004  269    105    103  MZ                Harvest Yield    4204. kg/ha
 

*DSSAT Cropping System Model Ver. 4.7.5.008 -release  JAN 07, 2021 20:33:24
!---------------------------------------------------------------------------------------------
@RUN Date........  DOY    DAS    DAP  CR  Stage         Operation       Quantities
!---------------------------------------------------------------------------------------------
  25 JUN 14, 2005  165      1      0  MZ  14 Start Sim 
  25 JUN 15, 2005  166      2      0  MZ                Planting       
  25 JUN 15, 2005  166      2      0  MZ  07 Sowing    
  25 JUN 15, 2005  166      2      0  MZ                Fertilizer         30. kg[N]/ha 
  25 JUN 16, 2005  167      3      1  MZ  08 Germinate 
  25 JUN 21, 2005  172      8      6  MZ  09 Emergence 
  25 JUN 28, 2005  179     15     13  MZ  01 End Juveni
  25 JUL  3, 2005  184     20     18  MZ  02 Floral Ini
  25 JUL 30, 2005  211     47     45  MZ                Fertilizer         30. kg[N]/ha 
  25 AUG  4, 2005  216     52     50  MZ  03 75% Silkin
  25 AUG 17, 2005  229     65     63  MZ  04 Beg Gr Fil
  25 SEP 24, 2005  267    103    101  MZ  05 End Gr Fil
  25 SEP 26, 2005  269    105    103  MZ  16 Harvest   
  25 SEP 26, 2005  269    105    103  MZ                Harvest Yield    4588. kg/ha
 

*DSSAT Cropping System Model Ver. 4.7.5.008 -release  JAN 07, 2021 20:33:24
!---------------------------------------------------------------------------------------------
@RUN Date........  DOY    DAS    DAP  CR  Stage         Operation       Quantities
!---------------------------------------------------------------------------------------------
  26 JUN 14, 2006  165      1      0  MZ  14 Start Sim 
  26 JUN 15, 2006  166      2      0  MZ                Planting       
  26 JUN 15, 2006  166      2      0  MZ  07 Sowing    
  26 JUN 15, 2006  166      2      0  MZ                Fertilizer         30. kg[N]/ha 
  26 JUN 16, 2006  167      3      1  MZ  08 Germinate 
  26 JUN 20, 2006  171      7      5  MZ  09 Emergence 
  26 JUN 27, 2006  178     14     12  MZ  01 End Juveni
  26 JUL  2, 2006  183     19     17  MZ  02 Floral Ini
  26 JUL 30, 2006  211     47     45  MZ                Fertilizer         30. kg[N]/ha 
  26 AUG  3, 2006  215     51     49  MZ  03 75% Silkin
  26 AUG 17, 2006  229     65     63  MZ  04 Beg Gr Fil
  26 SEP 24, 2006  267    103    101  MZ  05 End Gr Fil
  26 SEP 27, 2006  270    106    104  MZ  16 Harvest   
  26 SEP 27, 2006  270    106    104  MZ                Harvest Yield    3830. kg/ha
 

*DSSAT Cropping System Model Ver. 4.7.5.008 -release  JAN 07, 2021 20:33:24
!---------------------------------------------------------------------------------------------
@RUN Date........  DOY    DAS    DAP  CR  Stage         Operation       Quantities
!---------------------------------------------------------------------------------------------
  27 JUN 14, 2007  165      1      0  MZ  14 Start Sim 
  27 JUN 15, 2007  166      2      0  MZ                Planting       
  27 JUN 15, 2007  166      2      0  MZ  07 Sowing    
  27 JUN 15, 2007  166      2      0  MZ                Fertilizer         30. kg[N]/ha 
  27 JUN 16, 2007  167      3      1  MZ  08 Germinate 
  27 JUN 21, 2007  172      8      6  MZ  09 Emergence 
  27 JUN 28, 2007  179     15     13  MZ  01 End Juveni
  27 JUL  3, 2007  184     20     18  MZ  02 Floral Ini
  27 JUL 30, 2007  211     47     45  MZ                Fertilizer         30. kg[N]/ha 
  27 AUG  4, 2007  216     52     50  MZ  03 75% Silkin
  27 AUG 18, 2007  230     66     64  MZ  04 Beg Gr Fil
  27 SEP 26, 2007  269    105    103  MZ  05 End Gr Fil
  27 SEP 29, 2007  272    108    106  MZ  16 Harvest   
  27 SEP 29, 2007  272    108    106  MZ                Harvest Yield    3815. kg/ha
 

*DSSAT Cropping System Model Ver. 4.7.5.008 -release  JAN 07, 2021 20:33:24
!---------------------------------------------------------------------------------------------
@RUN Date........  DOY    DAS    DAP  CR  Stage         Operation       Quantities
!---------------------------------------------------------------------------------------------
  28 JUN 13, 2008  165      1      0  MZ  14 Start Sim 
  28 JUN 14, 2008  166      2      0  MZ                Planting       
  28 JUN 14, 2008  166      2      0  MZ  07 Sowing    
  28 JUN 14, 2008  166      2      0  MZ                Fertilizer         30. kg[N]/ha 
  28 JUN 15, 2008  167      3      1  MZ  08 Germinate 
  28 JUN 20, 2008  172      8      6  MZ  09 Emergence 
  28 JUN 27, 2008  179     15     13  MZ  01 End Juveni
  28 JUL  2, 2008  184     20     18  MZ  02 Floral Ini
  28 JUL 29, 2008  211     47     45  MZ                Fertilizer         30. kg[N]/ha 
  28 AUG  3, 2008  216     52     50  MZ  03 75% Silkin
  28 AUG 17, 2008  230     66     64  MZ  04 Beg Gr Fil
  28 SEP 23, 2008  267    103    101  MZ  05 End Gr Fil
  28 SEP 26, 2008  270    106    104  MZ  16 Harvest   
  28 SEP 26, 2008  270    106    104  MZ                Harvest Yield    4199. kg/ha
 

*DSSAT Cropping System Model Ver. 4.7.5.008 -release  JAN 07, 2021 20:33:24
!---------------------------------------------------------------------------------------------
@RUN Date........  DOY    DAS    DAP  CR  Stage         Operation       Quantities
!---------------------------------------------------------------------------------------------
  29 JUN 14, 2009  165      1      0  MZ  14 Start Sim 
  29 JUN 15, 2009  166      2      0  MZ                Planting       
  29 JUN 15, 2009  166      2      0  MZ  07 Sowing    
  29 JUN 15, 2009  166      2      0  MZ                Fertilizer         30. kg[N]/ha 
  29 JUN 16, 2009  167      3      1  MZ  08 Germinate 
  29 JUN 20, 2009  171      7      5  MZ  09 Emergence 
  29 JUN 26, 2009  177     13     11  MZ  01 End Juveni
  29 JUL  1, 2009  182     18     16  MZ  02 Floral Ini
  29 JUL 30, 2009  211     47     45  MZ                Fertilizer         30. kg[N]/ha 
  29 JUL 31, 2009  212     48     46  MZ  03 75% Silkin
  29 AUG 13, 2009  225     61     59  MZ  04 Beg Gr Fil
  29 SEP 19, 2009  262     98     96  MZ  05 End Gr Fil
  29 SEP 21, 2009  264    100     98  MZ  16 Harvest   
  29 SEP 21, 2009  264    100     98  MZ                Harvest Yield    4448. kg/ha
 

*DSSAT Cropping System Model Ver. 4.7.5.008 -release  JAN 07, 2021 20:33:24
!---------------------------------------------------------------------------------------------
@RUN Date........  DOY    DAS    DAP  CR  Stage         Operation       Quantities
!---------------------------------------------------------------------------------------------
  30 JUN 14, 2010  165      1      0  MZ  14 Start Sim 
  30 JUN 15, 2010  166      2      0  MZ                Planting       
  30 JUN 15, 2010  166      2      0  MZ  07 Sowing    
  30 JUN 15, 2010  166      2      0  MZ                Fertilizer         30. kg[N]/ha 
  30 JUN 16, 2010  167      3      1  MZ  08 Germinate 
  30 JUN 20, 2010  171      7      5  MZ  09 Emergence 
  30 JUN 27, 2010  178     14     12  MZ  01 End Juveni
  30 JUL  2, 2010  183     19     17  MZ  02 Floral Ini
  30 JUL 30, 2010  211     47     45  MZ                Fertilizer         30. kg[N]/ha 
  30 JUL 31, 2010  212     48     46  MZ  03 75% Silkin
  30 AUG 12, 2010  224     60     58  MZ  04 Beg Gr Fil
  30 SEP 15, 2010  258     94     92  MZ  05 End Gr Fil
  30 SEP 17, 2010  260     96     94  MZ  16 Harvest   
  30 SEP 17, 2010  260     96     94  MZ                Harvest Yield    4058. kg/ha
 

*DSSAT Cropping System Model Ver. 4.7.5.008 -release  JAN 07, 2021 20:33:24
!---------------------------------------------------------------------------------------------
@RUN Date........  DOY    DAS    DAP  CR  Stage         Operation       Quantities
!---------------------------------------------------------------------------------------------
  31 JUN 14, 2011  165      1      0  MZ  14 Start Sim 
  31 JUN 15, 2011  166      2      0  MZ                Planting       
  31 JUN 15, 2011  166      2      0  MZ  07 Sowing    
  31 JUN 15, 2011  166      2      0  MZ                Fertilizer         30. kg[N]/ha 
  31 JUN 16, 2011  167      3      1  MZ  08 Germinate 
  31 JUN 21, 2011  172      8      6  MZ  09 Emergence 
  31 JUN 28, 2011  179     15     13  MZ  01 End Juveni
  31 JUL  3, 2011  184     20     18  MZ  02 Floral Ini
  31 JUL 30, 2011  211     47     45  MZ                Fertilizer         30. kg[N]/ha 
  31 AUG  6, 2011  218     54     52  MZ  03 75% Silkin
  31 AUG 22, 2011  234     70     68  MZ  04 Beg Gr Fil
  31 OCT  5, 2011  278    114    112  MZ  05 End Gr Fil
  31 OCT  8, 2011  281    117    115  MZ  16 Harvest   
  31 OCT  8, 2011  281    117    115  MZ                Harvest Yield    5026. kg/ha
 

*DSSAT Cropping System Model Ver. 4.7.5.008 -release  JAN 07, 2021 20:33:24
!---------------------------------------------------------------------------------------------
@RUN Date........  DOY    DAS    DAP  CR  Stage         Operation       Quantities
!---------------------------------------------------------------------------------------------
  32 JUN 13, 2012  165      1      0  MZ  14 Start Sim 
  32 JUN 14, 2012  166      2      0  MZ                Planting       
  32 JUN 14, 2012  166      2      0  MZ  07 Sowing    
  32 JUN 14, 2012  166      2      0  MZ                Fertilizer         30. kg[N]/ha 
  32 JUN 15, 2012  167      3      1  MZ  08 Germinate 
  32 JUN 20, 2012  172      8      6  MZ  09 Emergence 
  32 JUN 27, 2012  179     15     13  MZ  01 End Juveni
  32 JUL  2, 2012  184     20     18  MZ  02 Floral Ini
  32 JUL 29, 2012  211     47     45  MZ                Fertilizer         30. kg[N]/ha 
  32 AUG  6, 2012  219     55     53  MZ  03 75% Silkin
  32 AUG 22, 2012  235     71     69  MZ  04 Beg Gr Fil
  32 OCT  5, 2012  279    115    113  MZ  05 End Gr Fil
  32 OCT  8, 2012  282    118    116  MZ  16 Harvest   
  32 OCT  8, 2012  282    118    116  MZ                Harvest Yield    5063. kg/ha
 

*DSSAT Cropping System Model Ver. 4.7.5.008 -release  JAN 07, 2021 20:33:24
!---------------------------------------------------------------------------------------------
@RUN Date........  DOY    DAS    DAP  CR  Stage         Operation       Quantities
!---------------------------------------------------------------------------------------------
  33 JUN 14, 2013  165      1      0  MZ  14 Start Sim 
  33 JUN 15, 2013  166      2      0  MZ                Planting       
  33 JUN 15, 2013  166      2      0  MZ  07 Sowing    
  33 JUN 15, 2013  166      2      0  MZ                Fertilizer         30. kg[N]/ha 
  33 JUN 16, 2013  167      3      1  MZ  08 Germinate 
  33 JUN 21, 2013  172      8      6  MZ  09 Emergence 
  33 JUN 29, 2013  180     16     14  MZ  01 End Juveni
  33 JUL  4, 2013  185     21     19  MZ  02 Floral Ini
  33 JUL 30, 2013  211     47     45  MZ                Fertilizer         30. kg[N]/ha 
  33 AUG  8, 2013  220     56     54  MZ  03 75% Silkin
  33 AUG 25, 2013  237     73     71  MZ  04 Beg Gr Fil
  33 OCT  7, 2013  280    116    114  MZ  05 End Gr Fil
  33 OCT 11, 2013  284    120    118  MZ  16 Harvest   
  33 OCT 11, 2013  284    120    118  MZ                Harvest Yield    4977. kg/ha
 

*DSSAT Cropping System Model Ver. 4.7.5.008 -release  JAN 07, 2021 20:33:24
!---------------------------------------------------------------------------------------------
@RUN Date........  DOY    DAS    DAP  CR  Stage         Operation       Quantities
!---------------------------------------------------------------------------------------------
  34 JUN 14, 2014  165      1      0  MZ  14 Start Sim 
  34 JUN 15, 2014  166      2      0  MZ                Planting       
  34 JUN 15, 2014  166      2      0  MZ  07 Sowing    
  34 JUN 15, 2014  166      2      0  MZ                Fertilizer         30. kg[N]/ha 
  34 JUN 16, 2014  167      3      1  MZ  08 Germinate 
  34 JUN 21, 2014  172      8      6  MZ  09 Emergence 
  34 JUN 28, 2014  179     15     13  MZ  01 End Juveni
  34 JUL  3, 2014  184     20     18  MZ  02 Floral Ini
  34 JUL 30, 2014  211     47     45  MZ                Fertilizer         30. kg[N]/ha 
  34 AUG  6, 2014  218     54     52  MZ  03 75% Silkin
  34 AUG 22, 2014  234     70     68  MZ  04 Beg Gr Fil
  34 OCT  6, 2014  279    115    113  MZ  05 End Gr Fil
  34 OCT 10, 2014  283    119    117  MZ  16 Harvest   
  34 OCT 10, 2014  283    119    117  MZ                Harvest Yield    4843. kg/ha
 

*DSSAT Cropping System Model Ver. 4.7.5.008 -release  JAN 07, 2021 20:33:24
!---------------------------------------------------------------------------------------------
@RUN Date........  DOY    DAS    DAP  CR  Stage         Operation       Quantities
!---------------------------------------------------------------------------------------------
  35 JUN 14, 2015  165      1      0  MZ  14 Start Sim 
  35 JUN 15, 2015  166      2      0  MZ                Planting       
  35 JUN 15, 2015  166      2      0  MZ  07 Sowing    
  35 JUN 15, 2015  166      2      0  MZ                Fertilizer         30. kg[N]/ha 
  35 JUN 16, 2015  167      3      1  MZ  08 Germinate 
  35 JUN 21, 2015  172      8      6  MZ  09 Emergence 
  35 JUN 28, 2015  179     15     13  MZ  01 End Juveni
  35 JUL  3, 2015  184     20     18  MZ  02 Floral Ini
  35 JUL 30, 2015  211     47     45  MZ                Fertilizer         30. kg[N]/ha 
  35 AUG  4, 2015  216     52     50  MZ  03 75% Silkin
  35 AUG 19, 2015  231     67     65  MZ  04 Beg Gr Fil
  35 SEP 30, 2015  273    109    107  MZ  05 End Gr Fil
  35 OCT  3, 2015  276    112    110  MZ  16 Harvest   
  35 OCT  3, 2015  276    112    110  MZ                Harvest Yield    4971. kg/ha
 

*DSSAT Cropping System Model Ver. 4.7.5.008 -release  JAN 07, 2021 20:33:40
!---------------------------------------------------------------------------------------------
@RUN Date........  DOY    DAS    DAP  CR  Stage         Operation       Quantities
!---------------------------------------------------------------------------------------------
  36 JUN 14, 1981  165      1      0  MZ  14 Start Sim 
  36 JUN 15, 1981  166      2      0  MZ                Planting       
  36 JUN 15, 1981  166      2      0  MZ  07 Sowing    
  36 JUN 15, 1981  166      2      0  MZ                Fertilizer         30. kg[N]/ha 
  36 JUN 16, 1981  167      3      1  MZ  08 Germinate 
  36 JUN 21, 1981  172      8      6  MZ  09 Emergence 
  36 JUL  8, 1981  189     25     23  MZ  01 End Juveni
  36 JUL 13, 1981  194     30     28  MZ  02 Floral Ini
  36 JUL 30, 1981  211     47     45  MZ                Fertilizer         30. kg[N]/ha 
  36 AUG 28, 1981  240     76     74  MZ  03 75% Silkin
  36 SEP 12, 1981  255     91     89  MZ  04 Beg Gr Fil
  36 NOV  2, 1981  306    142    140  MZ  05 End Gr Fil
  36 NOV  6, 1981  310    146    144  MZ  16 Harvest   
  36 NOV  6, 1981  310    146    144  MZ                Harvest Yield    3436. kg/ha
 

*DSSAT Cropping System Model Ver. 4.7.5.008 -release  JAN 07, 2021 20:33:40
!---------------------------------------------------------------------------------------------
@RUN Date........  DOY    DAS    DAP  CR  Stage         Operation       Quantities
!---------------------------------------------------------------------------------------------
  37 JUN 14, 1982  165      1      0  MZ  14 Start Sim 
  37 JUN 15, 1982  166      2      0  MZ                Planting       
  37 JUN 15, 1982  166      2      0  MZ  07 Sowing    
  37 JUN 15, 1982  166      2      0  MZ                Fertilizer         30. kg[N]/ha 
  37 JUN 16, 1982  167      3      1  MZ  08 Germinate 
  37 JUN 21, 1982  172      8      6  MZ  09 Emergence 
  37 JUL  7, 1982  188     24     22  MZ  01 End Juveni
  37 JUL 12, 1982  193     29     27  MZ  02 Floral Ini
  37 JUL 30, 1982  211     47     45  MZ                Fertilizer         30. kg[N]/ha 
  37 AUG 27, 1982  239     75     73  MZ  03 75% Silkin
  37 SEP  9, 1982  252     88     86  MZ  04 Beg Gr Fil
  37 OCT 30, 1982  303    139    137  MZ  05 End Gr Fil
  37 NOV  2, 1982  306    142    140  MZ  16 Harvest   
  37 NOV  2, 1982  306    142    140  MZ                Harvest Yield    3952. kg/ha
 

*DSSAT Cropping System Model Ver. 4.7.5.008 -release  JAN 07, 2021 20:33:40
!---------------------------------------------------------------------------------------------
@RUN Date........  DOY    DAS    DAP  CR  Stage         Operation       Quantities
!---------------------------------------------------------------------------------------------
  38 JUN 14, 1983  165      1      0  MZ  14 Start Sim 
  38 JUN 15, 1983  166      2      0  MZ                Planting       
  38 JUN 15, 1983  166      2      0  MZ  07 Sowing    
  38 JUN 15, 1983  166      2      0  MZ                Fertilizer         30. kg[N]/ha 
  38 JUN 16, 1983  167      3      1  MZ  08 Germinate 
  38 JUN 21, 1983  172      8      6  MZ  09 Emergence 
  38 JUL  9, 1983  190     26     24  MZ  01 End Juveni
  38 JUL 14, 1983  195     31     29  MZ  02 Floral Ini
  38 JUL 30, 1983  211     47     45  MZ                Fertilizer         30. kg[N]/ha 
  38 AUG 27, 1983  239     75     73  MZ  03 75% Silkin
  38 SEP 10, 1983  253     89     87  MZ  04 Beg Gr Fil
  38 NOV  1, 1983  305    141    139  MZ  05 End Gr Fil
  38 NOV  5, 1983  309    145    143  MZ  16 Harvest   
  38 NOV  5, 1983  309    145    143  MZ                Harvest Yield    4099. kg/ha
 

*DSSAT Cropping System Model Ver. 4.7.5.008 -release  JAN 07, 2021 20:33:40
!---------------------------------------------------------------------------------------------
@RUN Date........  DOY    DAS    DAP  CR  Stage         Operation       Quantities
!---------------------------------------------------------------------------------------------
  39 JUN 13, 1984  165      1      0  MZ  14 Start Sim 
  39 JUN 14, 1984  166      2      0  MZ                Planting       
  39 JUN 14, 1984  166      2      0  MZ  07 Sowing    
  39 JUN 14, 1984  166      2      0  MZ                Fertilizer         30. kg[N]/ha 
  39 JUN 15, 1984  167      3      1  MZ  08 Germinate 
  39 JUN 20, 1984  172      8      6  MZ  09 Emergence 
  39 JUL  9, 1984  191     27     25  MZ  01 End Juveni
  39 JUL 14, 1984  196     32     30  MZ  02 Floral Ini
  39 JUL 29, 1984  211     47     45  MZ                Fertilizer         30. kg[N]/ha 
  39 AUG 27, 1984  240     76     74  MZ  03 75% Silkin
  39 SEP 10, 1984  254     90     88  MZ  04 Beg Gr Fil
  39 OCT 31, 1984  305    141    139  MZ  05 End Gr Fil
  39 NOV  3, 1984  308    144    142  MZ  16 Harvest   
  39 NOV  3, 1984  308    144    142  MZ                Harvest Yield    3479. kg/ha
 

*DSSAT Cropping System Model Ver. 4.7.5.008 -release  JAN 07, 2021 20:33:40
!---------------------------------------------------------------------------------------------
@RUN Date........  DOY    DAS    DAP  CR  Stage         Operation       Quantities
!---------------------------------------------------------------------------------------------
  40 JUN 14, 1985  165      1      0  MZ  14 Start Sim 
  40 JUN 15, 1985  166      2      0  MZ                Planting       
  40 JUN 15, 1985  166      2      0  MZ  07 Sowing    
  40 JUN 15, 1985  166      2      0  MZ                Fertilizer         30. kg[N]/ha 
  40 JUN 16, 1985  167      3      1  MZ  08 Germinate 
  40 JUN 21, 1985  172      8      6  MZ  09 Emergence 
  40 JUL  8, 1985  189     25     23  MZ  01 End Juveni
  40 JUL 13, 1985  194     30     28  MZ  02 Floral Ini
  40 JUL 30, 1985  211     47     45  MZ                Fertilizer         30. kg[N]/ha 
  40 AUG 26, 1985  238     74     72  MZ  03 75% Silkin
  40 SEP 10, 1985  253     89     87  MZ  04 Beg Gr Fil
  40 NOV  2, 1985  306    142    140  MZ  05 End Gr Fil
  40 NOV  5, 1985  309    145    143  MZ  16 Harvest   
  40 NOV  5, 1985  309    145    143  MZ                Harvest Yield    4099. kg/ha
 

*DSSAT Cropping System Model Ver. 4.7.5.008 -release  JAN 07, 2021 20:33:40
!---------------------------------------------------------------------------------------------
@RUN Date........  DOY    DAS    DAP  CR  Stage         Operation       Quantities
!---------------------------------------------------------------------------------------------
  41 JUN 14, 1986  165      1      0  MZ  14 Start Sim 
  41 JUN 15, 1986  166      2      0  MZ                Planting       
  41 JUN 15, 1986  166      2      0  MZ  07 Sowing    
  41 JUN 15, 1986  166      2      0  MZ                Fertilizer         30. kg[N]/ha 
  41 JUN 16, 1986  167      3      1  MZ  08 Germinate 
  41 JUN 21, 1986  172      8      6  MZ  09 Emergence 
  41 JUL  9, 1986  190     26     24  MZ  01 End Juveni
  41 JUL 14, 1986  195     31     29  MZ  02 Floral Ini
  41 JUL 30, 1986  211     47     45  MZ                Fertilizer         30. kg[N]/ha 
  41 AUG 27, 1986  239     75     73  MZ  03 75% Silkin
  41 SEP  9, 1986  252     88     86  MZ  04 Beg Gr Fil
  41 OCT 27, 1986  300    136    134  MZ  05 End Gr Fil
  41 OCT 31, 1986  304    140    138  MZ  16 Harvest   
  41 OCT 31, 1986  304    140    138  MZ                Harvest Yield    3598. kg/ha
 

*DSSAT Cropping System Model Ver. 4.7.5.008 -release  JAN 07, 2021 20:33:40
!---------------------------------------------------------------------------------------------
@RUN Date........  DOY    DAS    DAP  CR  Stage         Operation       Quantities
!---------------------------------------------------------------------------------------------
  42 JUN 14, 1987  165      1      0  MZ  14 Start Sim 
  42 JUN 15, 1987  166      2      0  MZ                Planting       
  42 JUN 15, 1987  166      2      0  MZ  07 Sowing    
  42 JUN 15, 1987  166      2      0  MZ                Fertilizer         30. kg[N]/ha 
  42 JUN 16, 1987  167      3      1  MZ  08 Germinate 
  42 JUN 23, 1987  174     10      8  MZ  09 Emergence 
  42 JUL 12, 1987  193     29     27  MZ  01 End Juveni
  42 JUL 17, 1987  198     34     32  MZ  02 Floral Ini
  42 JUL 30, 1987  211     47     45  MZ                Fertilizer         30. kg[N]/ha 
  42 AUG 28, 1987  240     76     74  MZ  03 75% Silkin
  42 SEP 12, 1987  255     91     89  MZ  04 Beg Gr Fil
  42 NOV  2, 1987  306    142    140  MZ  05 End Gr Fil
  42 NOV  5, 1987  309    145    143  MZ  16 Harvest   
  42 NOV  5, 1987  309    145    143  MZ                Harvest Yield    4233. kg/ha
 

*DSSAT Cropping System Model Ver. 4.7.5.008 -release  JAN 07, 2021 20:33:40
!---------------------------------------------------------------------------------------------
@RUN Date........  DOY    DAS    DAP  CR  Stage         Operation       Quantities
!---------------------------------------------------------------------------------------------
  43 JUN 13, 1988  165      1      0  MZ  14 Start Sim 
  43 JUN 14, 1988  166      2      0  MZ                Planting       
  43 JUN 14, 1988  166      2      0  MZ  07 Sowing    
  43 JUN 14, 1988  166      2      0  MZ                Fertilizer         30. kg[N]/ha 
  43 JUN 15, 1988  167      3      1  MZ  08 Germinate 
  43 JUN 20, 1988  172      8      6  MZ  09 Emergence 
  43 JUL  8, 1988  190     26     24  MZ  01 End Juveni
  43 JUL 13, 1988  195     31     29  MZ  02 Floral Ini
  43 JUL 29, 1988  211     47     45  MZ                Fertilizer         30. kg[N]/ha 
  43 AUG 21, 1988  234     70     68  MZ  03 75% Silkin
  43 SEP  4, 1988  248     84     82  MZ  04 Beg Gr Fil
  43 OCT 25, 1988  299    135    133  MZ  05 End Gr Fil
  43 OCT 29, 1988  303    139    137  MZ  16 Harvest   
  43 OCT 29, 1988  303    139    137  MZ                Harvest Yield    3977. kg/ha
 

*DSSAT Cropping System Model Ver. 4.7.5.008 -release  JAN 07, 2021 20:33:40
!---------------------------------------------------------------------------------------------
@RUN Date........  DOY    DAS    DAP  CR  Stage         Operation       Quantities
!---------------------------------------------------------------------------------------------
  44 JUN 14, 1989  165      1      0  MZ  14 Start Sim 
  44 JUN 15, 1989  166      2      0  MZ                Planting       
  44 JUN 15, 1989  166      2      0  MZ  07 Sowing    
  44 JUN 15, 1989  166      2      0  MZ                Fertilizer         30. kg[N]/ha 
  44 JUN 16, 1989  167      3      1  MZ  08 Germinate 
  44 JUN 21, 1989  172      8      6  MZ  09 Emergence 
  44 JUL  9, 1989  190     26     24  MZ  01 End Juveni
  44 JUL 14, 1989  195     31     29  MZ  02 Floral Ini
  44 JUL 30, 1989  211     47     45  MZ                Fertilizer         30. kg[N]/ha 
  44 AUG 25, 1989  237     73     71  MZ  03 75% Silkin
  44 SEP  9, 1989  252     88     86  MZ  04 Beg Gr Fil
  44 NOV  2, 1989  306    142    140  MZ  05 End Gr Fil
  44 NOV  5, 1989  309    145    143  MZ  16 Harvest   
  44 NOV  5, 1989  309    145    143  MZ                Harvest Yield    4102. kg/ha
 

*DSSAT Cropping System Model Ver. 4.7.5.008 -release  JAN 07, 2021 20:33:40
!---------------------------------------------------------------------------------------------
@RUN Date........  DOY    DAS    DAP  CR  Stage         Operation       Quantities
!---------------------------------------------------------------------------------------------
  45 JUN 14, 1990  165      1      0  MZ  14 Start Sim 
  45 JUN 15, 1990  166      2      0  MZ                Planting       
  45 JUN 15, 1990  166      2      0  MZ  07 Sowing    
  45 JUN 15, 1990  166      2      0  MZ                Fertilizer         30. kg[N]/ha 
  45 JUN 16, 1990  167      3      1  MZ  08 Germinate 
  45 JUN 21, 1990  172      8      6  MZ  09 Emergence 
  45 JUL  5, 1990  186     22     20  MZ  01 End Juveni
  45 JUL 10, 1990  191     27     25  MZ  02 Floral Ini
  45 JUL 30, 1990  211     47     45  MZ                Fertilizer         30. kg[N]/ha 
  45 AUG 23, 1990  235     71     69  MZ  03 75% Silkin
  45 SEP  7, 1990  250     86     84  MZ  04 Beg Gr Fil
  45 OCT 26, 1990  299    135    133  MZ  05 End Gr Fil
  45 OCT 29, 1990  302    138    136  MZ  16 Harvest   
  45 OCT 29, 1990  302    138    136  MZ                Harvest Yield    3998. kg/ha
 

*DSSAT Cropping System Model Ver. 4.7.5.008 -release  JAN 07, 2021 20:33:40
!---------------------------------------------------------------------------------------------
@RUN Date........  DOY    DAS    DAP  CR  Stage         Operation       Quantities
!---------------------------------------------------------------------------------------------
  46 JUN 14, 1991  165      1      0  MZ  14 Start Sim 
  46 JUN 15, 1991  166      2      0  MZ                Planting       
  46 JUN 15, 1991  166      2      0  MZ  07 Sowing    
  46 JUN 15, 1991  166      2      0  MZ                Fertilizer         30. kg[N]/ha 
  46 JUN 16, 1991  167      3      1  MZ  08 Germinate 
  46 JUN 21, 1991  172      8      6  MZ  09 Emergence 
  46 JUL  9, 1991  190     26     24  MZ  01 End Juveni
  46 JUL 14, 1991  195     31     29  MZ  02 Floral Ini
  46 JUL 30, 1991  211     47     45  MZ                Fertilizer         30. kg[N]/ha 
  46 AUG 27, 1991  239     75     73  MZ  03 75% Silkin
  46 SEP 11, 1991  254     90     88  MZ  04 Beg Gr Fil
  46 NOV  4, 1991  308    144    142  MZ  05 End Gr Fil
  46 NOV  7, 1991  311    147    145  MZ  16 Harvest   
  46 NOV  7, 1991  311    147    145  MZ                Harvest Yield    3554. kg/ha
 

*DSSAT Cropping System Model Ver. 4.7.5.008 -release  JAN 07, 2021 20:33:40
!---------------------------------------------------------------------------------------------
@RUN Date........  DOY    DAS    DAP  CR  Stage         Operation       Quantities
!---------------------------------------------------------------------------------------------
  47 JUN 13, 1992  165      1      0  MZ  14 Start Sim 
  47 JUN 14, 1992  166      2      0  MZ                Planting       
  47 JUN 14, 1992  166      2      0  MZ  07 Sowing    
  47 JUN 14, 1992  166      2      0  MZ                Fertilizer         30. kg[N]/ha 
  47 JUN 15, 1992  167      3      1  MZ  08 Germinate 
  47 JUN 20, 1992  172      8      6  MZ  09 Emergence 
  47 JUL  7, 1992  189     25     23  MZ  01 End Juveni
  47 JUL 12, 1992  194     30     28  MZ  02 Floral Ini
  47 JUL 29, 1992  211     47     45  MZ                Fertilizer         30. kg[N]/ha 
  47 AUG 23, 1992  236     72     70  MZ  03 75% Silkin
  47 SEP  6, 1992  250     86     84  MZ  04 Beg Gr Fil
  47 OCT 28, 1992  302    138    136  MZ  05 End Gr Fil
  47 OCT 31, 1992  305    141    139  MZ  16 Harvest   
  47 OCT 31, 1992  305    141    139  MZ                Harvest Yield    3901. kg/ha
 

*DSSAT Cropping System Model Ver. 4.7.5.008 -release  JAN 07, 2021 20:33:40
!---------------------------------------------------------------------------------------------
@RUN Date........  DOY    DAS    DAP  CR  Stage         Operation       Quantities
!---------------------------------------------------------------------------------------------
  48 JUN 14, 1993  165      1      0  MZ  14 Start Sim 
  48 JUN 15, 1993  166      2      0  MZ                Planting       
  48 JUN 15, 1993  166      2      0  MZ  07 Sowing    
  48 JUN 15, 1993  166      2      0  MZ                Fertilizer         30. kg[N]/ha 
  48 JUN 16, 1993  167      3      1  MZ  08 Germinate 
  48 JUN 22, 1993  173      9      7  MZ  09 Emergence 
  48 JUL 10, 1993  191     27     25  MZ  01 End Juveni
  48 JUL 15, 1993  196     32     30  MZ  02 Floral Ini
  48 JUL 30, 1993  211     47     45  MZ                Fertilizer         30. kg[N]/ha 
  48 AUG 25, 1993  237     73     71  MZ  03 75% Silkin
  48 SEP  9, 1993  252     88     86  MZ  04 Beg Gr Fil
  48 OCT 30, 1993  303    139    137  MZ  05 End Gr Fil
  48 NOV  3, 1993  307    143    141  MZ  16 Harvest   
  48 NOV  3, 1993  307    143    141  MZ                Harvest Yield    3888. kg/ha
 

*DSSAT Cropping System Model Ver. 4.7.5.008 -release  JAN 07, 2021 20:33:40
!---------------------------------------------------------------------------------------------
@RUN Date........  DOY    DAS    DAP  CR  Stage         Operation       Quantities
!---------------------------------------------------------------------------------------------
  49 JUN 14, 1994  165      1      0  MZ  14 Start Sim 
  49 JUN 15, 1994  166      2      0  MZ                Planting       
  49 JUN 15, 1994  166      2      0  MZ  07 Sowing    
  49 JUN 15, 1994  166      2      0  MZ                Fertilizer         30. kg[N]/ha 
  49 JUN 16, 1994  167      3      1  MZ  08 Germinate 
  49 JUN 22, 1994  173      9      7  MZ  09 Emergence 
  49 JUL  8, 1994  189     25     23  MZ  01 End Juveni
  49 JUL 13, 1994  194     30     28  MZ  02 Floral Ini
  49 JUL 30, 1994  211     47     45  MZ                Fertilizer         30. kg[N]/ha 
  49 AUG 29, 1994  241     77     75  MZ  03 75% Silkin
  49 SEP 12, 1994  255     91     89  MZ  04 Beg Gr Fil
  49 NOV  2, 1994  306    142    140  MZ  05 End Gr Fil
  49 NOV  5, 1994  309    145    143  MZ  16 Harvest   
  49 NOV  5, 1994  309    145    143  MZ                Harvest Yield    3749. kg/ha
 

*DSSAT Cropping System Model Ver. 4.7.5.008 -release  JAN 07, 2021 20:33:40
!---------------------------------------------------------------------------------------------
@RUN Date........  DOY    DAS    DAP  CR  Stage         Operation       Quantities
!---------------------------------------------------------------------------------------------
  50 JUN 14, 1995  165      1      0  MZ  14 Start Sim 
  50 JUN 15, 1995  166      2      0  MZ                Planting       
  50 JUN 15, 1995  166      2      0  MZ  07 Sowing    
  50 JUN 15, 1995  166      2      0  MZ                Fertilizer         30. kg[N]/ha 
  50 JUN 16, 1995  167      3      1  MZ  08 Germinate 
  50 JUN 21, 1995  172      8      6  MZ  09 Emergence 
  50 JUL  8, 1995  189     25     23  MZ  01 End Juveni
  50 JUL 13, 1995  194     30     28  MZ  02 Floral Ini
  50 JUL 30, 1995  211     47     45  MZ                Fertilizer         30. kg[N]/ha 
  50 AUG 24, 1995  236     72     70  MZ  03 75% Silkin
  50 SEP  8, 1995  251     87     85  MZ  04 Beg Gr Fil
  50 NOV  1, 1995  305    141    139  MZ  05 End Gr Fil
  50 NOV  4, 1995  308    144    142  MZ  16 Harvest   
  50 NOV  4, 1995  308    144    142  MZ                Harvest Yield    4584. kg/ha
 

*DSSAT Cropping System Model Ver. 4.7.5.008 -release  JAN 07, 2021 20:33:40
!---------------------------------------------------------------------------------------------
@RUN Date........  DOY    DAS    DAP  CR  Stage         Operation       Quantities
!---------------------------------------------------------------------------------------------
  51 JUN 13, 1996  165      1      0  MZ  14 Start Sim 
  51 JUN 14, 1996  166      2      0  MZ                Planting       
  51 JUN 14, 1996  166      2      0  MZ  07 Sowing    
  51 JUN 14, 1996  166      2      0  MZ                Fertilizer         30. kg[N]/ha 
  51 JUN 15, 1996  167      3      1  MZ  08 Germinate 
  51 JUN 19, 1996  171      7      5  MZ  09 Emergence 
  51 JUL  7, 1996  189     25     23  MZ  01 End Juveni
  51 JUL 12, 1996  194     30     28  MZ  02 Floral Ini
  51 JUL 29, 1996  211     47     45  MZ                Fertilizer         30. kg[N]/ha 
  51 AUG 28, 1996  241     77     75  MZ  03 75% Silkin
  51 SEP 11, 1996  255     91     89  MZ  04 Beg Gr Fil
  51 OCT 30, 1996  304    140    138  MZ  05 End Gr Fil
  51 NOV  3, 1996  308    144    142  MZ  16 Harvest   
  51 NOV  3, 1996  308    144    142  MZ                Harvest Yield    3753. kg/ha
 

*DSSAT Cropping System Model Ver. 4.7.5.008 -release  JAN 07, 2021 20:33:40
!---------------------------------------------------------------------------------------------
@RUN Date........  DOY    DAS    DAP  CR  Stage         Operation       Quantities
!---------------------------------------------------------------------------------------------
  52 JUN 14, 1997  165      1      0  MZ  14 Start Sim 
  52 JUN 15, 1997  166      2      0  MZ                Planting       
  52 JUN 15, 1997  166      2      0  MZ  07 Sowing    
  52 JUN 15, 1997  166      2      0  MZ                Fertilizer         30. kg[N]/ha 
  52 JUN 16, 1997  167      3      1  MZ  08 Germinate 
  52 JUN 22, 1997  173      9      7  MZ  09 Emergence 
  52 JUL  9, 1997  190     26     24  MZ  01 End Juveni
  52 JUL 14, 1997  195     31     29  MZ  02 Floral Ini
  52 JUL 30, 1997  211     47     45  MZ                Fertilizer         30. kg[N]/ha 
  52 AUG 26, 1997  238     74     72  MZ  03 75% Silkin
  52 SEP 10, 1997  253     89     87  MZ  04 Beg Gr Fil
  52 NOV  1, 1997  305    141    139  MZ  05 End Gr Fil
  52 NOV  4, 1997  308    144    142  MZ  16 Harvest   
  52 NOV  4, 1997  308    144    142  MZ                Harvest Yield    4318. kg/ha
 

*DSSAT Cropping System Model Ver. 4.7.5.008 -release  JAN 07, 2021 20:33:40
!---------------------------------------------------------------------------------------------
@RUN Date........  DOY    DAS    DAP  CR  Stage         Operation       Quantities
!---------------------------------------------------------------------------------------------
  53 JUN 14, 1998  165      1      0  MZ  14 Start Sim 
  53 JUN 15, 1998  166      2      0  MZ                Planting       
  53 JUN 15, 1998  166      2      0  MZ  07 Sowing    
  53 JUN 15, 1998  166      2      0  MZ                Fertilizer         30. kg[N]/ha 
  53 JUN 16, 1998  167      3      1  MZ  08 Germinate 
  53 JUN 21, 1998  172      8      6  MZ  09 Emergence 
  53 JUL  8, 1998  189     25     23  MZ  01 End Juveni
  53 JUL 13, 1998  194     30     28  MZ  02 Floral Ini
  53 JUL 30, 1998  211     47     45  MZ                Fertilizer         30. kg[N]/ha 
  53 AUG 27, 1998  239     75     73  MZ  03 75% Silkin
  53 SEP  9, 1998  252     88     86  MZ  04 Beg Gr Fil
  53 OCT 30, 1998  303    139    137  MZ  05 End Gr Fil
  53 NOV  3, 1998  307    143    141  MZ  16 Harvest   
  53 NOV  3, 1998  307    143    141  MZ                Harvest Yield    3188. kg/ha
 

*DSSAT Cropping System Model Ver. 4.7.5.008 -release  JAN 07, 2021 20:33:40
!---------------------------------------------------------------------------------------------
@RUN Date........  DOY    DAS    DAP  CR  Stage         Operation       Quantities
!---------------------------------------------------------------------------------------------
  54 JUN 14, 1999  165      1      0  MZ  14 Start Sim 
  54 JUN 15, 1999  166      2      0  MZ                Planting       
  54 JUN 15, 1999  166      2      0  MZ  07 Sowing    
  54 JUN 15, 1999  166      2      0  MZ                Fertilizer         30. kg[N]/ha 
  54 JUN 16, 1999  167      3      1  MZ  08 Germinate 
  54 JUN 21, 1999  172      8      6  MZ  09 Emergence 
  54 JUL  8, 1999  189     25     23  MZ  01 End Juveni
  54 JUL 13, 1999  194     30     28  MZ  02 Floral Ini
  54 JUL 30, 1999  211     47     45  MZ                Fertilizer         30. kg[N]/ha 
  54 AUG 26, 1999  238     74     72  MZ  03 75% Silkin
  54 SEP 10, 1999  253     89     87  MZ  04 Beg Gr Fil
  54 NOV  2, 1999  306    142    140  MZ  05 End Gr Fil
  54 NOV  5, 1999  309    145    143  MZ  16 Harvest   
  54 NOV  5, 1999  309    145    143  MZ                Harvest Yield    4323. kg/ha
 

*DSSAT Cropping System Model Ver. 4.7.5.008 -release  JAN 07, 2021 20:33:40
!---------------------------------------------------------------------------------------------
@RUN Date........  DOY    DAS    DAP  CR  Stage         Operation       Quantities
!---------------------------------------------------------------------------------------------
  55 JUN 13, 2000  165      1      0  MZ  14 Start Sim 
  55 JUN 14, 2000  166      2      0  MZ                Planting       
  55 JUN 14, 2000  166      2      0  MZ  07 Sowing    
  55 JUN 14, 2000  166      2      0  MZ                Fertilizer         30. kg[N]/ha 
  55 JUN 15, 2000  167      3      1  MZ  08 Germinate 
  55 JUN 20, 2000  172      8      6  MZ  09 Emergence 
  55 JUL 10, 2000  192     28     26  MZ  01 End Juveni
  55 JUL 15, 2000  197     33     31  MZ  02 Floral Ini
  55 JUL 29, 2000  211     47     45  MZ                Fertilizer         30. kg[N]/ha 
  55 SEP  1, 2000  245     81     79  MZ  03 75% Silkin
  55 SEP 18, 2000  262     98     96  MZ  04 Beg Gr Fil
  55 NOV 10, 2000  315    151    149  MZ  05 End Gr Fil
  55 NOV 14, 2000  319    155    153  MZ  16 Harvest   
  55 NOV 14, 2000  319    155    153  MZ                Harvest Yield    3332. kg/ha
 

*DSSAT Cropping System Model Ver. 4.7.5.008 -release  JAN 07, 2021 20:33:40
!---------------------------------------------------------------------------------------------
@RUN Date........  DOY    DAS    DAP  CR  Stage         Operation       Quantities
!---------------------------------------------------------------------------------------------
  56 JUN 14, 2001  165      1      0  MZ  14 Start Sim 
  56 JUN 15, 2001  166      2      0  MZ                Planting       
  56 JUN 15, 2001  166      2      0  MZ  07 Sowing    
  56 JUN 15, 2001  166      2      0  MZ                Fertilizer         30. kg[N]/ha 
  56 JUN 16, 2001  167      3      1  MZ  08 Germinate 
  56 JUN 21, 2001  172      8      6  MZ  09 Emergence 
  56 JUL  9, 2001  190     26     24  MZ  01 End Juveni
  56 JUL 14, 2001  195     31     29  MZ  02 Floral Ini
  56 JUL 30, 2001  211     47     45  MZ                Fertilizer         30. kg[N]/ha 
  56 AUG 26, 2001  238     74     72  MZ  03 75% Silkin
  56 SEP  9, 2001  252     88     86  MZ  04 Beg Gr Fil
  56 OCT 28, 2001  301    137    135  MZ  05 End Gr Fil
  56 NOV  1, 2001  305    141    139  MZ  16 Harvest   
  56 NOV  1, 2001  305    141    139  MZ                Harvest Yield    3400. kg/ha
 

*DSSAT Cropping System Model Ver. 4.7.5.008 -release  JAN 07, 2021 20:33:40
!---------------------------------------------------------------------------------------------
@RUN Date........  DOY    DAS    DAP  CR  Stage         Operation       Quantities
!---------------------------------------------------------------------------------------------
  57 JUN 14, 2002  165      1      0  MZ  14 Start Sim 
  57 JUN 15, 2002  166      2      0  MZ                Planting       
  57 JUN 15, 2002  166      2      0  MZ  07 Sowing    
  57 JUN 15, 2002  166      2      0  MZ                Fertilizer         30. kg[N]/ha 
  57 JUN 16, 2002  167      3      1  MZ  08 Germinate 
  57 JUN 21, 2002  172      8      6  MZ  09 Emergence 
  57 JUL  7, 2002  188     24     22  MZ  01 End Juveni
  57 JUL 12, 2002  193     29     27  MZ  02 Floral Ini
  57 JUL 30, 2002  211     47     45  MZ                Fertilizer         30. kg[N]/ha 
  57 AUG 24, 2002  236     72     70  MZ  03 75% Silkin
  57 SEP  6, 2002  249     85     83  MZ  04 Beg Gr Fil
  57 OCT 25, 2002  298    134    132  MZ  05 End Gr Fil
  57 OCT 29, 2002  302    138    136  MZ  16 Harvest   
  57 OCT 29, 2002  302    138    136  MZ                Harvest Yield    3324. kg/ha
 

*DSSAT Cropping System Model Ver. 4.7.5.008 -release  JAN 07, 2021 20:33:40
!---------------------------------------------------------------------------------------------
@RUN Date........  DOY    DAS    DAP  CR  Stage         Operation       Quantities
!---------------------------------------------------------------------------------------------
  58 JUN 14, 2003  165      1      0  MZ  14 Start Sim 
  58 JUN 15, 2003  166      2      0  MZ                Planting       
  58 JUN 15, 2003  166      2      0  MZ  07 Sowing    
  58 JUN 15, 2003  166      2      0  MZ                Fertilizer         30. kg[N]/ha 
  58 JUN 16, 2003  167      3      1  MZ  08 Germinate 
  58 JUN 21, 2003  172      8      6  MZ  09 Emergence 
  58 JUL  9, 2003  190     26     24  MZ  01 End Juveni
  58 JUL 14, 2003  195     31     29  MZ  02 Floral Ini
  58 JUL 30, 2003  211     47     45  MZ                Fertilizer         30. kg[N]/ha 
  58 AUG 27, 2003  239     75     73  MZ  03 75% Silkin
  58 SEP 10, 2003  253     89     87  MZ  04 Beg Gr Fil
  58 NOV  1, 2003  305    141    139  MZ  05 End Gr Fil
  58 NOV  5, 2003  309    145    143  MZ  16 Harvest   
  58 NOV  5, 2003  309    145    143  MZ                Harvest Yield    2824. kg/ha
 

*DSSAT Cropping System Model Ver. 4.7.5.008 -release  JAN 07, 2021 20:33:40
!---------------------------------------------------------------------------------------------
@RUN Date........  DOY    DAS    DAP  CR  Stage         Operation       Quantities
!---------------------------------------------------------------------------------------------
  59 JUN 13, 2004  165      1      0  MZ  14 Start Sim 
  59 JUN 14, 2004  166      2      0  MZ                Planting       
  59 JUN 14, 2004  166      2      0  MZ  07 Sowing    
  59 JUN 14, 2004  166      2      0  MZ                Fertilizer         30. kg[N]/ha 
  59 JUN 15, 2004  167      3      1  MZ  08 Germinate 
  59 JUN 20, 2004  172      8      6  MZ  09 Emergence 
  59 JUL  8, 2004  190     26     24  MZ  01 End Juveni
  59 JUL 13, 2004  195     31     29  MZ  02 Floral Ini
  59 JUL 29, 2004  211     47     45  MZ                Fertilizer         30. kg[N]/ha 
  59 AUG 25, 2004  238     74     72  MZ  03 75% Silkin
  59 SEP  8, 2004  252     88     86  MZ  04 Beg Gr Fil
  59 OCT 30, 2004  304    140    138  MZ  05 End Gr Fil
  59 NOV  2, 2004  307    143    141  MZ  16 Harvest   
  59 NOV  2, 2004  307    143    141  MZ                Harvest Yield    3901. kg/ha
 

*DSSAT Cropping System Model Ver. 4.7.5.008 -release  JAN 07, 2021 20:33:40
!---------------------------------------------------------------------------------------------
@RUN Date........  DOY    DAS    DAP  CR  Stage         Operation       Quantities
!---------------------------------------------------------------------------------------------
  60 JUN 14, 2005  165      1      0  MZ  14 Start Sim 
  60 JUN 15, 2005  166      2      0  MZ                Planting       
  60 JUN 15, 2005  166      2      0  MZ  07 Sowing    
  60 JUN 15, 2005  166      2      0  MZ                Fertilizer         30. kg[N]/ha 
  60 JUN 16, 2005  167      3      1  MZ  08 Germinate 
  60 JUN 20, 2005  171      7      5  MZ  09 Emergence 
  60 JUL  5, 2005  186     22     20  MZ  01 End Juveni
  60 JUL 10, 2005  191     27     25  MZ  02 Floral Ini
  60 JUL 30, 2005  211     47     45  MZ                Fertilizer         30. kg[N]/ha 
  60 AUG 20, 2005  232     68     66  MZ  03 75% Silkin
  60 SEP  2, 2005  245     81     79  MZ  04 Beg Gr Fil
  60 OCT 21, 2005  294    130    128  MZ  05 End Gr Fil
  60 OCT 24, 2005  297    133    131  MZ  16 Harvest   
  60 OCT 24, 2005  297    133    131  MZ                Harvest Yield    4144. kg/ha
 

*DSSAT Cropping System Model Ver. 4.7.5.008 -release  JAN 07, 2021 20:33:40
!---------------------------------------------------------------------------------------------
@RUN Date........  DOY    DAS    DAP  CR  Stage         Operation       Quantities
!---------------------------------------------------------------------------------------------
  61 JUN 14, 2006  165      1      0  MZ  14 Start Sim 
  61 JUN 15, 2006  166      2      0  MZ                Planting       
  61 JUN 15, 2006  166      2      0  MZ  07 Sowing    
  61 JUN 15, 2006  166      2      0  MZ                Fertilizer         30. kg[N]/ha 
  61 JUN 16, 2006  167      3      1  MZ  08 Germinate 
  61 JUN 21, 2006  172      8      6  MZ  09 Emergence 
  61 JUL  8, 2006  189     25     23  MZ  01 End Juveni
  61 JUL 13, 2006  194     30     28  MZ  02 Floral Ini
  61 JUL 30, 2006  211     47     45  MZ                Fertilizer         30. kg[N]/ha 
  61 AUG 27, 2006  239     75     73  MZ  03 75% Silkin
  61 SEP 11, 2006  254     90     88  MZ  04 Beg Gr Fil
  61 OCT 27, 2006  300    136    134  MZ  05 End Gr Fil
  61 OCT 30, 2006  303    139    137  MZ  16 Harvest   
  61 OCT 30, 2006  303    139    137  MZ                Harvest Yield    3442. kg/ha
 

*DSSAT Cropping System Model Ver. 4.7.5.008 -release  JAN 07, 2021 20:33:40
!---------------------------------------------------------------------------------------------
@RUN Date........  DOY    DAS    DAP  CR  Stage         Operation       Quantities
!---------------------------------------------------------------------------------------------
  62 JUN 14, 2007  165      1      0  MZ  14 Start Sim 
  62 JUN 15, 2007  166      2      0  MZ                Planting       
  62 JUN 15, 2007  166      2      0  MZ  07 Sowing    
  62 JUN 15, 2007  166      2      0  MZ                Fertilizer         30. kg[N]/ha 
  62 JUN 16, 2007  167      3      1  MZ  08 Germinate 
  62 JUN 21, 2007  172      8      6  MZ  09 Emergence 
  62 JUL 10, 2007  191     27     25  MZ  01 End Juveni
  62 JUL 15, 2007  196     32     30  MZ  02 Floral Ini
  62 JUL 30, 2007  211     47     45  MZ                Fertilizer         30. kg[N]/ha 
  62 AUG 28, 2007  240     76     74  MZ  03 75% Silkin
  62 SEP 12, 2007  255     91     89  MZ  04 Beg Gr Fil
  62 NOV  2, 2007  306    142    140  MZ  05 End Gr Fil
  62 NOV  6, 2007  310    146    144  MZ  16 Harvest   
  62 NOV  6, 2007  310    146    144  MZ                Harvest Yield    3926. kg/ha
 

*DSSAT Cropping System Model Ver. 4.7.5.008 -release  JAN 07, 2021 20:33:40
!---------------------------------------------------------------------------------------------
@RUN Date........  DOY    DAS    DAP  CR  Stage         Operation       Quantities
!---------------------------------------------------------------------------------------------
  63 JUN 13, 2008  165      1      0  MZ  14 Start Sim 
  63 JUN 14, 2008  166      2      0  MZ                Planting       
  63 JUN 14, 2008  166      2      0  MZ  07 Sowing    
  63 JUN 14, 2008  166      2      0  MZ                Fertilizer         30. kg[N]/ha 
  63 JUN 15, 2008  167      3      1  MZ  08 Germinate 
  63 JUN 20, 2008  172      8      6  MZ  09 Emergence 
  63 JUL  7, 2008  189     25     23  MZ  01 End Juveni
  63 JUL 12, 2008  194     30     28  MZ  02 Floral Ini
  63 JUL 29, 2008  211     47     45  MZ                Fertilizer         30. kg[N]/ha 
  63 AUG 25, 2008  238     74     72  MZ  03 75% Silkin
  63 SEP  9, 2008  253     89     87  MZ  04 Beg Gr Fil
  63 OCT 28, 2008  302    138    136  MZ  05 End Gr Fil
  63 OCT 31, 2008  305    141    139  MZ  16 Harvest   
  63 OCT 31, 2008  305    141    139  MZ                Harvest Yield    3703. kg/ha
 

*DSSAT Cropping System Model Ver. 4.7.5.008 -release  JAN 07, 2021 20:33:40
!---------------------------------------------------------------------------------------------
@RUN Date........  DOY    DAS    DAP  CR  Stage         Operation       Quantities
!---------------------------------------------------------------------------------------------
  64 JUN 14, 2009  165      1      0  MZ  14 Start Sim 
  64 JUN 15, 2009  166      2      0  MZ                Planting       
  64 JUN 15, 2009  166      2      0  MZ  07 Sowing    
  64 JUN 15, 2009  166      2      0  MZ                Fertilizer         30. kg[N]/ha 
  64 JUN 16, 2009  167      3      1  MZ  08 Germinate 
  64 JUN 21, 2009  172      8      6  MZ  09 Emergence 
  64 JUL  9, 2009  190     26     24  MZ  01 End Juveni
  64 JUL 14, 2009  195     31     29  MZ  02 Floral Ini
  64 JUL 30, 2009  211     47     45  MZ                Fertilizer         30. kg[N]/ha 
  64 AUG 30, 2009  242     78     76  MZ  03 75% Silkin
  64 SEP 15, 2009  258     94     92  MZ  04 Beg Gr Fil
  64 NOV 10, 2009  314    150    148  MZ  05 End Gr Fil
  64 NOV 14, 2009  318    154    152  MZ  16 Harvest   
  64 NOV 14, 2009  318    154    152  MZ                Harvest Yield    3859. kg/ha
 

*DSSAT Cropping System Model Ver. 4.7.5.008 -release  JAN 07, 2021 20:33:40
!---------------------------------------------------------------------------------------------
@RUN Date........  DOY    DAS    DAP  CR  Stage         Operation       Quantities
!---------------------------------------------------------------------------------------------
  65 JUN 14, 2010  165      1      0  MZ  14 Start Sim 
  65 JUN 15, 2010  166      2      0  MZ                Planting       
  65 JUN 15, 2010  166      2      0  MZ  07 Sowing    
  65 JUN 15, 2010  166      2      0  MZ                Fertilizer         30. kg[N]/ha 
  65 JUN 16, 2010  167      3      1  MZ  08 Germinate 
  65 JUN 21, 2010  172      8      6  MZ  09 Emergence 
  65 JUL  7, 2010  188     24     22  MZ  01 End Juveni
  65 JUL 12, 2010  193     29     27  MZ  02 Floral Ini
  65 JUL 30, 2010  211     47     45  MZ                Fertilizer         30. kg[N]/ha 
  65 AUG 25, 2010  237     73     71  MZ  03 75% Silkin
  65 SEP  9, 2010  252     88     86  MZ  04 Beg Gr Fil
  65 OCT 31, 2010  304    140    138  MZ  05 End Gr Fil
  65 NOV  3, 2010  307    143    141  MZ  16 Harvest   
  65 NOV  3, 2010  307    143    141  MZ                Harvest Yield    4414. kg/ha
 

*DSSAT Cropping System Model Ver. 4.7.5.008 -release  JAN 07, 2021 20:33:40
!---------------------------------------------------------------------------------------------
@RUN Date........  DOY    DAS    DAP  CR  Stage         Operation       Quantities
!---------------------------------------------------------------------------------------------
  66 JUN 14, 2011  165      1      0  MZ  14 Start Sim 
  66 JUN 15, 2011  166      2      0  MZ                Planting       
  66 JUN 15, 2011  166      2      0  MZ  07 Sowing    
  66 JUN 15, 2011  166      2      0  MZ                Fertilizer         30. kg[N]/ha 
  66 JUN 16, 2011  167      3      1  MZ  08 Germinate 
  66 JUN 21, 2011  172      8      6  MZ  09 Emergence 
  66 JUL  7, 2011  188     24     22  MZ  01 End Juveni
  66 JUL 12, 2011  193     29     27  MZ  02 Floral Ini
  66 JUL 30, 2011  211     47     45  MZ                Fertilizer         30. kg[N]/ha 
  66 AUG 23, 2011  235     71     69  MZ  03 75% Silkin
  66 SEP  7, 2011  250     86     84  MZ  04 Beg Gr Fil
  66 OCT 30, 2011  303    139    137  MZ  05 End Gr Fil
  66 NOV  2, 2011  306    142    140  MZ  16 Harvest   
  66 NOV  2, 2011  306    142    140  MZ                Harvest Yield    4210. kg/ha
 

*DSSAT Cropping System Model Ver. 4.7.5.008 -release  JAN 07, 2021 20:33:40
!---------------------------------------------------------------------------------------------
@RUN Date........  DOY    DAS    DAP  CR  Stage         Operation       Quantities
!---------------------------------------------------------------------------------------------
  67 JUN 13, 2012  165      1      0  MZ  14 Start Sim 
  67 JUN 14, 2012  166      2      0  MZ                Planting       
  67 JUN 14, 2012  166      2      0  MZ  07 Sowing    
  67 JUN 14, 2012  166      2      0  MZ                Fertilizer         30. kg[N]/ha 
  67 JUN 15, 2012  167      3      1  MZ  08 Germinate 
  67 JUN 20, 2012  172      8      6  MZ  09 Emergence 
  67 JUL  5, 2012  187     23     21  MZ  01 End Juveni
  67 JUL 10, 2012  192     28     26  MZ  02 Floral Ini
  67 JUL 29, 2012  211     47     45  MZ                Fertilizer         30. kg[N]/ha 
  67 AUG 23, 2012  236     72     70  MZ  03 75% Silkin
  67 SEP  6, 2012  250     86     84  MZ  04 Beg Gr Fil
  67 OCT 25, 2012  299    135    133  MZ  05 End Gr Fil
  67 OCT 28, 2012  302    138    136  MZ  16 Harvest   
  67 OCT 28, 2012  302    138    136  MZ                Harvest Yield    3975. kg/ha
 

*DSSAT Cropping System Model Ver. 4.7.5.008 -release  JAN 07, 2021 20:33:40
!---------------------------------------------------------------------------------------------
@RUN Date........  DOY    DAS    DAP  CR  Stage         Operation       Quantities
!---------------------------------------------------------------------------------------------
  68 JUN 14, 2013  165      1      0  MZ  14 Start Sim 
  68 JUN 15, 2013  166      2      0  MZ                Planting       
  68 JUN 15, 2013  166      2      0  MZ  07 Sowing    
  68 JUN 15, 2013  166      2      0  MZ                Fertilizer         30. kg[N]/ha 
  68 JUN 16, 2013  167      3      1  MZ  08 Germinate 
  68 JUN 21, 2013  172      8      6  MZ  09 Emergence 
  68 JUL  9, 2013  190     26     24  MZ  01 End Juveni
  68 JUL 14, 2013  195     31     29  MZ  02 Floral Ini
  68 JUL 30, 2013  211     47     45  MZ                Fertilizer         30. kg[N]/ha 
  68 AUG 29, 2013  241     77     75  MZ  03 75% Silkin
  68 SEP 12, 2013  255     91     89  MZ  04 Beg Gr Fil
  68 NOV  4, 2013  308    144    142  MZ  05 End Gr Fil
  68 NOV  7, 2013  311    147    145  MZ  16 Harvest   
  68 NOV  7, 2013  311    147    145  MZ                Harvest Yield    3523. kg/ha
 

*DSSAT Cropping System Model Ver. 4.7.5.008 -release  JAN 07, 2021 20:33:40
!---------------------------------------------------------------------------------------------
@RUN Date........  DOY    DAS    DAP  CR  Stage         Operation       Quantities
!---------------------------------------------------------------------------------------------
  69 JUN 14, 2014  165      1      0  MZ  14 Start Sim 
  69 JUN 15, 2014  166      2      0  MZ                Planting       
  69 JUN 15, 2014  166      2      0  MZ  07 Sowing    
  69 JUN 15, 2014  166      2      0  MZ                Fertilizer         30. kg[N]/ha 
  69 JUN 16, 2014  167      3      1  MZ  08 Germinate 
  69 JUN 21, 2014  172      8      6  MZ  09 Emergence 
  69 JUL  8, 2014  189     25     23  MZ  01 End Juveni
  69 JUL 13, 2014  194     30     28  MZ  02 Floral Ini
  69 JUL 30, 2014  211     47     45  MZ                Fertilizer         30. kg[N]/ha 
  69 AUG 26, 2014  238     74     72  MZ  03 75% Silkin
  69 SEP 10, 2014  253     89     87  MZ  04 Beg Gr Fil
  69 OCT 28, 2014  301    137    135  MZ  05 End Gr Fil
  69 NOV  1, 2014  305    141    139  MZ  16 Harvest   
  69 NOV  1, 2014  305    141    139  MZ                Harvest Yield    4222. kg/ha
 

*DSSAT Cropping System Model Ver. 4.7.5.008 -release  JAN 07, 2021 20:33:40
!---------------------------------------------------------------------------------------------
@RUN Date........  DOY    DAS    DAP  CR  Stage         Operation       Quantities
!---------------------------------------------------------------------------------------------
  70 JUN 14, 2015  165      1      0  MZ  14 Start Sim 
  70 JUN 15, 2015  166      2      0  MZ                Planting       
  70 JUN 15, 2015  166      2      0  MZ  07 Sowing    
  70 JUN 15, 2015  166      2      0  MZ                Fertilizer         30. kg[N]/ha 
  70 JUN 16, 2015  167      3      1  MZ  08 Germinate 
  70 JUN 20, 2015  171      7      5  MZ  09 Emergence 
  70 JUL  6, 2015  187     23     21  MZ  01 End Juveni
  70 JUL 11, 2015  192     28     26  MZ  02 Floral Ini
  70 JUL 30, 2015  211     47     45  MZ                Fertilizer         30. kg[N]/ha 
  70 AUG 26, 2015  238     74     72  MZ  03 75% Silkin
  70 SEP  9, 2015  252     88     86  MZ  04 Beg Gr Fil
  70 OCT 29, 2015  302    138    136  MZ  05 End Gr Fil
  70 NOV  1, 2015  305    141    139  MZ  16 Harvest   
  70 NOV  1, 2015  305    141    139  MZ                Harvest Yield    4178. kg/ha
 
