*MANAGEMENT OPERATIONS DAILY OUTPUT FILE

*DSSAT Cropping System Model Ver. 4.7.5.008 -release  JAN 07, 2021 20:14:37

*RUN   1        : ERiMA DCC1                MZCER047 ETMZmelk    1
 MODEL          : MZCER047 - Maize
 EXPERIMENT     : ETMZmelk SN MELKSSAL
 DATA PATH      : C:\IRI\Python_Dash\ET_DSS_hist\TEST\
 TREATMENT  1   : ERiMA DCC1                MZCER047
  

@YEAR DOY   DAS   DAP  NAPC  NICM  R#AC RESNC RESPC
 1981 165     1     0     0     0     0     0     0
 1981 166     2     0     1    30     0     0     0
 1981 167     3     1     1    30     0     0     0
 1981 168     4     2     1    30     0     0     0
 1981 169     5     3     1    30     0     0     0
 1981 170     6     4     1    30     0     0     0
 1981 171     7     5     1    30     0     0     0
 1981 172     8     6     1    30     0     0     0
 1981 173     9     7     1    30     0     0     0
 1981 174    10     8     1    30     0     0     0
 1981 175    11     9     1    30     0     0     0
 1981 176    12    10     1    30     0     0     0
 1981 177    13    11     1    30     0     0     0
 1981 178    14    12     1    30     0     0     0
 1981 179    15    13     1    30     0     0     0
 1981 180    16    14     1    30     0     0     0
 1981 181    17    15     1    30     0     0     0
 1981 182    18    16     1    30     0     0     0
 1981 183    19    17     1    30     0     0     0
 1981 184    20    18     1    30     0     0     0
 1981 185    21    19     1    30     0     0     0
 1981 186    22    20     1    30     0     0     0
 1981 187    23    21     1    30     0     0     0
 1981 188    24    22     1    30     0     0     0
 1981 189    25    23     1    30     0     0     0
 1981 190    26    24     1    30     0     0     0
 1981 191    27    25     1    30     0     0     0
 1981 192    28    26     1    30     0     0     0
 1981 193    29    27     1    30     0     0     0
 1981 194    30    28     1    30     0     0     0
 1981 195    31    29     1    30     0     0     0
 1981 196    32    30     1    30     0     0     0
 1981 197    33    31     1    30     0     0     0
 1981 198    34    32     1    30     0     0     0
 1981 199    35    33     1    30     0     0     0
 1981 200    36    34     1    30     0     0     0
 1981 201    37    35     1    30     0     0     0
 1981 202    38    36     1    30     0     0     0
 1981 203    39    37     1    30     0     0     0
 1981 204    40    38     1    30     0     0     0
 1981 205    41    39     1    30     0     0     0
 1981 206    42    40     1    30     0     0     0
 1981 207    43    41     1    30     0     0     0
 1981 208    44    42     1    30     0     0     0
 1981 209    45    43     1    30     0     0     0
 1981 210    46    44     1    30     0     0     0
 1981 211    47    45     2    60     0     0     0
 1981 212    48    46     2    60     0     0     0
 1981 213    49    47     2    60     0     0     0
 1981 214    50    48     2    60     0     0     0
 1981 215    51    49     2    60     0     0     0
 1981 216    52    50     2    60     0     0     0
 1981 217    53    51     2    60     0     0     0
 1981 218    54    52     2    60     0     0     0
 1981 219    55    53     2    60     0     0     0
 1981 220    56    54     2    60     0     0     0
 1981 221    57    55     2    60     0     0     0
 1981 222    58    56     2    60     0     0     0
 1981 223    59    57     2    60     0     0     0
 1981 224    60    58     2    60     0     0     0
 1981 225    61    59     2    60     0     0     0
 1981 226    62    60     2    60     0     0     0
 1981 227    63    61     2    60     0     0     0
 1981 228    64    62     2    60     0     0     0
 1981 229    65    63     2    60     0     0     0
 1981 230    66    64     2    60     0     0     0
 1981 231    67    65     2    60     0     0     0
 1981 232    68    66     2    60     0     0     0
 1981 233    69    67     2    60     0     0     0
 1981 234    70    68     2    60     0     0     0
 1981 235    71    69     2    60     0     0     0
 1981 236    72    70     2    60     0     0     0
 1981 237    73    71     2    60     0     0     0
 1981 238    74    72     2    60     0     0     0
 1981 239    75    73     2    60     0     0     0
 1981 240    76    74     2    60     0     0     0
 1981 241    77    75     2    60     0     0     0
 1981 242    78    76     2    60     0     0     0
 1981 243    79    77     2    60     0     0     0
 1981 244    80    78     2    60     0     0     0
 1981 245    81    79     2    60     0     0     0
 1981 246    82    80     2    60     0     0     0
 1981 247    83    81     2    60     0     0     0
 1981 248    84    82     2    60     0     0     0
 1981 249    85    83     2    60     0     0     0
 1981 250    86    84     2    60     0     0     0
 1981 251    87    85     2    60     0     0     0
 1981 252    88    86     2    60     0     0     0
 1981 253    89    87     2    60     0     0     0
 1981 254    90    88     2    60     0     0     0
 1981 255    91    89     2    60     0     0     0
 1981 256    92    90     2    60     0     0     0
 1981 257    93    91     2    60     0     0     0
 1981 258    94    92     2    60     0     0     0
 1981 259    95    93     2    60     0     0     0
 1981 260    96    94     2    60     0     0     0
 1981 261    97    95     2    60     0     0     0
 1981 262    98    96     2    60     0     0     0
 1981 263    99    97     2    60     0     0     0
 1981 264   100    98     2    60     0     0     0
 1981 265   101    99     2    60     0     0     0
 1981 266   102   100     2    60     0     0     0
 1981 267   103   101     2    60     0     0     0
 1981 268   104   102     2    60     0     0     0
 1981 269   105   103     2    60     0     0     0
 1981 270   106   104     2    60     0     0     0
 1981 271   107   105     2    60     0     0     0
 1981 272   108   106     2    60     0     0     0
 1981 273   109   107     2    60     0     0     0
 1981 274   110   108     2    60     0     0     0
 1981 275   111   109     2    60     0     0     0
 1981 276   112   110     2    60     0     0     0
 1981 277   113   111     2    60     0     0     0
 1981 278   114   112     2    60     0     0     0
 1981 279   115   113     2    60     0     0     0
 1981 280   116   114     2    60     0     0     0
 1981 281   117   115     2    60     0     0     0
 1981 282   118   116     2    60     0     0     0
 1981 283   119   117     2    60     0     0     0
 1981 284   120   118     2    60     0     0     0
 1981 285   121   119     2    60     0     0     0
 1981 286   122   120     2    60     0     0     0
 1981 287   123   121     2    60     0     0     0
 1981 288   124   122     2    60     0     0     0
 1981 289   125   123     2    60     0     0     0
 1981 290   126   124     2    60     0     0     0
 1981 291   127   125     2    60     0     0     0
 1981 292   128   126     2    60     0     0     0
 1981 293   129   127     2    60     0     0     0
 1981 294   130   128     2    60     0     0     0
 1981 295   131   129     2    60     0     0     0
 1981 296   132   130     2    60     0     0     0
 1981 297   133   131     2    60     0     0     0
 1981 298   134   132     2    60     0     0     0
 1981 299   135   133     2    60     0     0     0
 1981 300   136   134     2    60     0     0     0
 1981 301   137   135     2    60     0     0     0
 1981 302   138   136     2    60     0     0     0
 1981 303   139   137     2    60     0     0     0
 1981 304   140   138     2    60     0     0     0
 1981 305   141   139     2    60     0     0     0

*DSSAT Cropping System Model Ver. 4.7.5.008 -release  JAN 07, 2021 20:14:37

*RUN   2        : ERiMA DCC1                MZCER047 ETMZmelk    1
 MODEL          : MZCER047 - Maize
 EXPERIMENT     : ETMZmelk SN MELKSSAL
 DATA PATH      : C:\IRI\Python_Dash\ET_DSS_hist\TEST\
 TREATMENT  1   : ERiMA DCC1                MZCER047
  

@YEAR DOY   DAS   DAP  NAPC  NICM  R#AC RESNC RESPC
 1982 165     1     0     0     0     0     0     0
 1982 166     2     0     1    30     0     0     0
 1982 167     3     1     1    30     0     0     0
 1982 168     4     2     1    30     0     0     0
 1982 169     5     3     1    30     0     0     0
 1982 170     6     4     1    30     0     0     0
 1982 171     7     5     1    30     0     0     0
 1982 172     8     6     1    30     0     0     0
 1982 173     9     7     1    30     0     0     0
 1982 174    10     8     1    30     0     0     0
 1982 175    11     9     1    30     0     0     0
 1982 176    12    10     1    30     0     0     0
 1982 177    13    11     1    30     0     0     0
 1982 178    14    12     1    30     0     0     0
 1982 179    15    13     1    30     0     0     0
 1982 180    16    14     1    30     0     0     0
 1982 181    17    15     1    30     0     0     0
 1982 182    18    16     1    30     0     0     0
 1982 183    19    17     1    30     0     0     0
 1982 184    20    18     1    30     0     0     0
 1982 185    21    19     1    30     0     0     0
 1982 186    22    20     1    30     0     0     0
 1982 187    23    21     1    30     0     0     0
 1982 188    24    22     1    30     0     0     0
 1982 189    25    23     1    30     0     0     0
 1982 190    26    24     1    30     0     0     0
 1982 191    27    25     1    30     0     0     0
 1982 192    28    26     1    30     0     0     0
 1982 193    29    27     1    30     0     0     0
 1982 194    30    28     1    30     0     0     0
 1982 195    31    29     1    30     0     0     0
 1982 196    32    30     1    30     0     0     0
 1982 197    33    31     1    30     0     0     0
 1982 198    34    32     1    30     0     0     0
 1982 199    35    33     1    30     0     0     0
 1982 200    36    34     1    30     0     0     0
 1982 201    37    35     1    30     0     0     0
 1982 202    38    36     1    30     0     0     0
 1982 203    39    37     1    30     0     0     0
 1982 204    40    38     1    30     0     0     0
 1982 205    41    39     1    30     0     0     0
 1982 206    42    40     1    30     0     0     0
 1982 207    43    41     1    30     0     0     0
 1982 208    44    42     1    30     0     0     0
 1982 209    45    43     1    30     0     0     0
 1982 210    46    44     1    30     0     0     0
 1982 211    47    45     2    60     0     0     0
 1982 212    48    46     2    60     0     0     0
 1982 213    49    47     2    60     0     0     0
 1982 214    50    48     2    60     0     0     0
 1982 215    51    49     2    60     0     0     0
 1982 216    52    50     2    60     0     0     0
 1982 217    53    51     2    60     0     0     0
 1982 218    54    52     2    60     0     0     0
 1982 219    55    53     2    60     0     0     0
 1982 220    56    54     2    60     0     0     0
 1982 221    57    55     2    60     0     0     0
 1982 222    58    56     2    60     0     0     0
 1982 223    59    57     2    60     0     0     0
 1982 224    60    58     2    60     0     0     0
 1982 225    61    59     2    60     0     0     0
 1982 226    62    60     2    60     0     0     0
 1982 227    63    61     2    60     0     0     0
 1982 228    64    62     2    60     0     0     0
 1982 229    65    63     2    60     0     0     0
 1982 230    66    64     2    60     0     0     0
 1982 231    67    65     2    60     0     0     0
 1982 232    68    66     2    60     0     0     0
 1982 233    69    67     2    60     0     0     0
 1982 234    70    68     2    60     0     0     0
 1982 235    71    69     2    60     0     0     0
 1982 236    72    70     2    60     0     0     0
 1982 237    73    71     2    60     0     0     0
 1982 238    74    72     2    60     0     0     0
 1982 239    75    73     2    60     0     0     0
 1982 240    76    74     2    60     0     0     0
 1982 241    77    75     2    60     0     0     0
 1982 242    78    76     2    60     0     0     0
 1982 243    79    77     2    60     0     0     0
 1982 244    80    78     2    60     0     0     0
 1982 245    81    79     2    60     0     0     0
 1982 246    82    80     2    60     0     0     0
 1982 247    83    81     2    60     0     0     0
 1982 248    84    82     2    60     0     0     0
 1982 249    85    83     2    60     0     0     0
 1982 250    86    84     2    60     0     0     0
 1982 251    87    85     2    60     0     0     0
 1982 252    88    86     2    60     0     0     0
 1982 253    89    87     2    60     0     0     0
 1982 254    90    88     2    60     0     0     0
 1982 255    91    89     2    60     0     0     0
 1982 256    92    90     2    60     0     0     0
 1982 257    93    91     2    60     0     0     0
 1982 258    94    92     2    60     0     0     0
 1982 259    95    93     2    60     0     0     0
 1982 260    96    94     2    60     0     0     0
 1982 261    97    95     2    60     0     0     0
 1982 262    98    96     2    60     0     0     0
 1982 263    99    97     2    60     0     0     0
 1982 264   100    98     2    60     0     0     0
 1982 265   101    99     2    60     0     0     0
 1982 266   102   100     2    60     0     0     0
 1982 267   103   101     2    60     0     0     0
 1982 268   104   102     2    60     0     0     0
 1982 269   105   103     2    60     0     0     0
 1982 270   106   104     2    60     0     0     0
 1982 271   107   105     2    60     0     0     0
 1982 272   108   106     2    60     0     0     0
 1982 273   109   107     2    60     0     0     0
 1982 274   110   108     2    60     0     0     0
 1982 275   111   109     2    60     0     0     0
 1982 276   112   110     2    60     0     0     0
 1982 277   113   111     2    60     0     0     0
 1982 278   114   112     2    60     0     0     0
 1982 279   115   113     2    60     0     0     0
 1982 280   116   114     2    60     0     0     0
 1982 281   117   115     2    60     0     0     0
 1982 282   118   116     2    60     0     0     0
 1982 283   119   117     2    60     0     0     0
 1982 284   120   118     2    60     0     0     0
 1982 285   121   119     2    60     0     0     0
 1982 286   122   120     2    60     0     0     0
 1982 287   123   121     2    60     0     0     0
 1982 288   124   122     2    60     0     0     0
 1982 289   125   123     2    60     0     0     0
 1982 290   126   124     2    60     0     0     0
 1982 291   127   125     2    60     0     0     0
 1982 292   128   126     2    60     0     0     0
 1982 293   129   127     2    60     0     0     0
 1982 294   130   128     2    60     0     0     0
 1982 295   131   129     2    60     0     0     0
 1982 296   132   130     2    60     0     0     0
 1982 297   133   131     2    60     0     0     0
 1982 298   134   132     2    60     0     0     0
 1982 299   135   133     2    60     0     0     0
 1982 300   136   134     2    60     0     0     0
 1982 301   137   135     2    60     0     0     0
 1982 302   138   136     2    60     0     0     0
 1982 303   139   137     2    60     0     0     0
 1982 304   140   138     2    60     0     0     0
 1982 305   141   139     2    60     0     0     0

*DSSAT Cropping System Model Ver. 4.7.5.008 -release  JAN 07, 2021 20:14:37

*RUN   3        : ERiMA DCC1                MZCER047 ETMZmelk    1
 MODEL          : MZCER047 - Maize
 EXPERIMENT     : ETMZmelk SN MELKSSAL
 DATA PATH      : C:\IRI\Python_Dash\ET_DSS_hist\TEST\
 TREATMENT  1   : ERiMA DCC1                MZCER047
  

@YEAR DOY   DAS   DAP  NAPC  NICM  R#AC RESNC RESPC
 1983 165     1     0     0     0     0     0     0
 1983 166     2     0     1    30     0     0     0
 1983 167     3     1     1    30     0     0     0
 1983 168     4     2     1    30     0     0     0
 1983 169     5     3     1    30     0     0     0
 1983 170     6     4     1    30     0     0     0
 1983 171     7     5     1    30     0     0     0
 1983 172     8     6     1    30     0     0     0
 1983 173     9     7     1    30     0     0     0
 1983 174    10     8     1    30     0     0     0
 1983 175    11     9     1    30     0     0     0
 1983 176    12    10     1    30     0     0     0
 1983 177    13    11     1    30     0     0     0
 1983 178    14    12     1    30     0     0     0
 1983 179    15    13     1    30     0     0     0
 1983 180    16    14     1    30     0     0     0
 1983 181    17    15     1    30     0     0     0
 1983 182    18    16     1    30     0     0     0
 1983 183    19    17     1    30     0     0     0
 1983 184    20    18     1    30     0     0     0
 1983 185    21    19     1    30     0     0     0
 1983 186    22    20     1    30     0     0     0
 1983 187    23    21     1    30     0     0     0
 1983 188    24    22     1    30     0     0     0
 1983 189    25    23     1    30     0     0     0
 1983 190    26    24     1    30     0     0     0
 1983 191    27    25     1    30     0     0     0
 1983 192    28    26     1    30     0     0     0
 1983 193    29    27     1    30     0     0     0
 1983 194    30    28     1    30     0     0     0
 1983 195    31    29     1    30     0     0     0
 1983 196    32    30     1    30     0     0     0
 1983 197    33    31     1    30     0     0     0
 1983 198    34    32     1    30     0     0     0
 1983 199    35    33     1    30     0     0     0
 1983 200    36    34     1    30     0     0     0
 1983 201    37    35     1    30     0     0     0
 1983 202    38    36     1    30     0     0     0
 1983 203    39    37     1    30     0     0     0
 1983 204    40    38     1    30     0     0     0
 1983 205    41    39     1    30     0     0     0
 1983 206    42    40     1    30     0     0     0
 1983 207    43    41     1    30     0     0     0
 1983 208    44    42     1    30     0     0     0
 1983 209    45    43     1    30     0     0     0
 1983 210    46    44     1    30     0     0     0
 1983 211    47    45     2    60     0     0     0
 1983 212    48    46     2    60     0     0     0
 1983 213    49    47     2    60     0     0     0
 1983 214    50    48     2    60     0     0     0
 1983 215    51    49     2    60     0     0     0
 1983 216    52    50     2    60     0     0     0
 1983 217    53    51     2    60     0     0     0
 1983 218    54    52     2    60     0     0     0
 1983 219    55    53     2    60     0     0     0
 1983 220    56    54     2    60     0     0     0
 1983 221    57    55     2    60     0     0     0
 1983 222    58    56     2    60     0     0     0
 1983 223    59    57     2    60     0     0     0
 1983 224    60    58     2    60     0     0     0
 1983 225    61    59     2    60     0     0     0
 1983 226    62    60     2    60     0     0     0
 1983 227    63    61     2    60     0     0     0
 1983 228    64    62     2    60     0     0     0
 1983 229    65    63     2    60     0     0     0
 1983 230    66    64     2    60     0     0     0
 1983 231    67    65     2    60     0     0     0
 1983 232    68    66     2    60     0     0     0
 1983 233    69    67     2    60     0     0     0
 1983 234    70    68     2    60     0     0     0
 1983 235    71    69     2    60     0     0     0
 1983 236    72    70     2    60     0     0     0
 1983 237    73    71     2    60     0     0     0
 1983 238    74    72     2    60     0     0     0
 1983 239    75    73     2    60     0     0     0
 1983 240    76    74     2    60     0     0     0
 1983 241    77    75     2    60     0     0     0
 1983 242    78    76     2    60     0     0     0
 1983 243    79    77     2    60     0     0     0
 1983 244    80    78     2    60     0     0     0
 1983 245    81    79     2    60     0     0     0
 1983 246    82    80     2    60     0     0     0
 1983 247    83    81     2    60     0     0     0
 1983 248    84    82     2    60     0     0     0
 1983 249    85    83     2    60     0     0     0
 1983 250    86    84     2    60     0     0     0
 1983 251    87    85     2    60     0     0     0
 1983 252    88    86     2    60     0     0     0
 1983 253    89    87     2    60     0     0     0
 1983 254    90    88     2    60     0     0     0
 1983 255    91    89     2    60     0     0     0
 1983 256    92    90     2    60     0     0     0
 1983 257    93    91     2    60     0     0     0
 1983 258    94    92     2    60     0     0     0
 1983 259    95    93     2    60     0     0     0
 1983 260    96    94     2    60     0     0     0
 1983 261    97    95     2    60     0     0     0
 1983 262    98    96     2    60     0     0     0
 1983 263    99    97     2    60     0     0     0
 1983 264   100    98     2    60     0     0     0
 1983 265   101    99     2    60     0     0     0
 1983 266   102   100     2    60     0     0     0
 1983 267   103   101     2    60     0     0     0
 1983 268   104   102     2    60     0     0     0
 1983 269   105   103     2    60     0     0     0
 1983 270   106   104     2    60     0     0     0
 1983 271   107   105     2    60     0     0     0
 1983 272   108   106     2    60     0     0     0
 1983 273   109   107     2    60     0     0     0
 1983 274   110   108     2    60     0     0     0
 1983 275   111   109     2    60     0     0     0
 1983 276   112   110     2    60     0     0     0
 1983 277   113   111     2    60     0     0     0
 1983 278   114   112     2    60     0     0     0
 1983 279   115   113     2    60     0     0     0
 1983 280   116   114     2    60     0     0     0
 1983 281   117   115     2    60     0     0     0
 1983 282   118   116     2    60     0     0     0
 1983 283   119   117     2    60     0     0     0
 1983 284   120   118     2    60     0     0     0
 1983 285   121   119     2    60     0     0     0
 1983 286   122   120     2    60     0     0     0
 1983 287   123   121     2    60     0     0     0
 1983 288   124   122     2    60     0     0     0
 1983 289   125   123     2    60     0     0     0
 1983 290   126   124     2    60     0     0     0
 1983 291   127   125     2    60     0     0     0
 1983 292   128   126     2    60     0     0     0
 1983 293   129   127     2    60     0     0     0
 1983 294   130   128     2    60     0     0     0
 1983 295   131   129     2    60     0     0     0
 1983 296   132   130     2    60     0     0     0
 1983 297   133   131     2    60     0     0     0
 1983 298   134   132     2    60     0     0     0
 1983 299   135   133     2    60     0     0     0
 1983 300   136   134     2    60     0     0     0
 1983 301   137   135     2    60     0     0     0
 1983 302   138   136     2    60     0     0     0

*DSSAT Cropping System Model Ver. 4.7.5.008 -release  JAN 07, 2021 20:14:37

*RUN   4        : ERiMA DCC1                MZCER047 ETMZmelk    1
 MODEL          : MZCER047 - Maize
 EXPERIMENT     : ETMZmelk SN MELKSSAL
 DATA PATH      : C:\IRI\Python_Dash\ET_DSS_hist\TEST\
 TREATMENT  1   : ERiMA DCC1                MZCER047
  

@YEAR DOY   DAS   DAP  NAPC  NICM  R#AC RESNC RESPC
 1984 165     1     0     0     0     0     0     0
 1984 166     2     0     1    30     0     0     0
 1984 167     3     1     1    30     0     0     0
 1984 168     4     2     1    30     0     0     0
 1984 169     5     3     1    30     0     0     0
 1984 170     6     4     1    30     0     0     0
 1984 171     7     5     1    30     0     0     0
 1984 172     8     6     1    30     0     0     0
 1984 173     9     7     1    30     0     0     0
 1984 174    10     8     1    30     0     0     0
 1984 175    11     9     1    30     0     0     0
 1984 176    12    10     1    30     0     0     0
 1984 177    13    11     1    30     0     0     0
 1984 178    14    12     1    30     0     0     0
 1984 179    15    13     1    30     0     0     0
 1984 180    16    14     1    30     0     0     0
 1984 181    17    15     1    30     0     0     0
 1984 182    18    16     1    30     0     0     0
 1984 183    19    17     1    30     0     0     0
 1984 184    20    18     1    30     0     0     0
 1984 185    21    19     1    30     0     0     0
 1984 186    22    20     1    30     0     0     0
 1984 187    23    21     1    30     0     0     0
 1984 188    24    22     1    30     0     0     0
 1984 189    25    23     1    30     0     0     0
 1984 190    26    24     1    30     0     0     0
 1984 191    27    25     1    30     0     0     0
 1984 192    28    26     1    30     0     0     0
 1984 193    29    27     1    30     0     0     0
 1984 194    30    28     1    30     0     0     0
 1984 195    31    29     1    30     0     0     0
 1984 196    32    30     1    30     0     0     0
 1984 197    33    31     1    30     0     0     0
 1984 198    34    32     1    30     0     0     0
 1984 199    35    33     1    30     0     0     0
 1984 200    36    34     1    30     0     0     0
 1984 201    37    35     1    30     0     0     0
 1984 202    38    36     1    30     0     0     0
 1984 203    39    37     1    30     0     0     0
 1984 204    40    38     1    30     0     0     0
 1984 205    41    39     1    30     0     0     0
 1984 206    42    40     1    30     0     0     0
 1984 207    43    41     1    30     0     0     0
 1984 208    44    42     1    30     0     0     0
 1984 209    45    43     1    30     0     0     0
 1984 210    46    44     1    30     0     0     0
 1984 211    47    45     2    60     0     0     0
 1984 212    48    46     2    60     0     0     0
 1984 213    49    47     2    60     0     0     0
 1984 214    50    48     2    60     0     0     0
 1984 215    51    49     2    60     0     0     0
 1984 216    52    50     2    60     0     0     0
 1984 217    53    51     2    60     0     0     0
 1984 218    54    52     2    60     0     0     0
 1984 219    55    53     2    60     0     0     0
 1984 220    56    54     2    60     0     0     0
 1984 221    57    55     2    60     0     0     0
 1984 222    58    56     2    60     0     0     0
 1984 223    59    57     2    60     0     0     0
 1984 224    60    58     2    60     0     0     0
 1984 225    61    59     2    60     0     0     0
 1984 226    62    60     2    60     0     0     0
 1984 227    63    61     2    60     0     0     0
 1984 228    64    62     2    60     0     0     0
 1984 229    65    63     2    60     0     0     0
 1984 230    66    64     2    60     0     0     0
 1984 231    67    65     2    60     0     0     0
 1984 232    68    66     2    60     0     0     0
 1984 233    69    67     2    60     0     0     0
 1984 234    70    68     2    60     0     0     0
 1984 235    71    69     2    60     0     0     0
 1984 236    72    70     2    60     0     0     0
 1984 237    73    71     2    60     0     0     0
 1984 238    74    72     2    60     0     0     0
 1984 239    75    73     2    60     0     0     0
 1984 240    76    74     2    60     0     0     0
 1984 241    77    75     2    60     0     0     0
 1984 242    78    76     2    60     0     0     0
 1984 243    79    77     2    60     0     0     0
 1984 244    80    78     2    60     0     0     0
 1984 245    81    79     2    60     0     0     0
 1984 246    82    80     2    60     0     0     0
 1984 247    83    81     2    60     0     0     0
 1984 248    84    82     2    60     0     0     0
 1984 249    85    83     2    60     0     0     0
 1984 250    86    84     2    60     0     0     0
 1984 251    87    85     2    60     0     0     0
 1984 252    88    86     2    60     0     0     0
 1984 253    89    87     2    60     0     0     0
 1984 254    90    88     2    60     0     0     0
 1984 255    91    89     2    60     0     0     0
 1984 256    92    90     2    60     0     0     0
 1984 257    93    91     2    60     0     0     0
 1984 258    94    92     2    60     0     0     0
 1984 259    95    93     2    60     0     0     0
 1984 260    96    94     2    60     0     0     0
 1984 261    97    95     2    60     0     0     0
 1984 262    98    96     2    60     0     0     0
 1984 263    99    97     2    60     0     0     0
 1984 264   100    98     2    60     0     0     0
 1984 265   101    99     2    60     0     0     0
 1984 266   102   100     2    60     0     0     0
 1984 267   103   101     2    60     0     0     0
 1984 268   104   102     2    60     0     0     0
 1984 269   105   103     2    60     0     0     0
 1984 270   106   104     2    60     0     0     0
 1984 271   107   105     2    60     0     0     0
 1984 272   108   106     2    60     0     0     0
 1984 273   109   107     2    60     0     0     0
 1984 274   110   108     2    60     0     0     0
 1984 275   111   109     2    60     0     0     0
 1984 276   112   110     2    60     0     0     0
 1984 277   113   111     2    60     0     0     0
 1984 278   114   112     2    60     0     0     0
 1984 279   115   113     2    60     0     0     0
 1984 280   116   114     2    60     0     0     0
 1984 281   117   115     2    60     0     0     0
 1984 282   118   116     2    60     0     0     0
 1984 283   119   117     2    60     0     0     0
 1984 284   120   118     2    60     0     0     0
 1984 285   121   119     2    60     0     0     0
 1984 286   122   120     2    60     0     0     0
 1984 287   123   121     2    60     0     0     0
 1984 288   124   122     2    60     0     0     0
 1984 289   125   123     2    60     0     0     0
 1984 290   126   124     2    60     0     0     0
 1984 291   127   125     2    60     0     0     0
 1984 292   128   126     2    60     0     0     0
 1984 293   129   127     2    60     0     0     0
 1984 294   130   128     2    60     0     0     0
 1984 295   131   129     2    60     0     0     0
 1984 296   132   130     2    60     0     0     0

*DSSAT Cropping System Model Ver. 4.7.5.008 -release  JAN 07, 2021 20:14:37

*RUN   5        : ERiMA DCC1                MZCER047 ETMZmelk    1
 MODEL          : MZCER047 - Maize
 EXPERIMENT     : ETMZmelk SN MELKSSAL
 DATA PATH      : C:\IRI\Python_Dash\ET_DSS_hist\TEST\
 TREATMENT  1   : ERiMA DCC1                MZCER047
  

@YEAR DOY   DAS   DAP  NAPC  NICM  R#AC RESNC RESPC
 1985 165     1     0     0     0     0     0     0
 1985 166     2     0     1    30     0     0     0
 1985 167     3     1     1    30     0     0     0
 1985 168     4     2     1    30     0     0     0
 1985 169     5     3     1    30     0     0     0
 1985 170     6     4     1    30     0     0     0
 1985 171     7     5     1    30     0     0     0
 1985 172     8     6     1    30     0     0     0
 1985 173     9     7     1    30     0     0     0
 1985 174    10     8     1    30     0     0     0
 1985 175    11     9     1    30     0     0     0
 1985 176    12    10     1    30     0     0     0
 1985 177    13    11     1    30     0     0     0
 1985 178    14    12     1    30     0     0     0
 1985 179    15    13     1    30     0     0     0
 1985 180    16    14     1    30     0     0     0
 1985 181    17    15     1    30     0     0     0
 1985 182    18    16     1    30     0     0     0
 1985 183    19    17     1    30     0     0     0
 1985 184    20    18     1    30     0     0     0
 1985 185    21    19     1    30     0     0     0
 1985 186    22    20     1    30     0     0     0
 1985 187    23    21     1    30     0     0     0
 1985 188    24    22     1    30     0     0     0
 1985 189    25    23     1    30     0     0     0
 1985 190    26    24     1    30     0     0     0
 1985 191    27    25     1    30     0     0     0
 1985 192    28    26     1    30     0     0     0
 1985 193    29    27     1    30     0     0     0
 1985 194    30    28     1    30     0     0     0
 1985 195    31    29     1    30     0     0     0
 1985 196    32    30     1    30     0     0     0
 1985 197    33    31     1    30     0     0     0
 1985 198    34    32     1    30     0     0     0
 1985 199    35    33     1    30     0     0     0
 1985 200    36    34     1    30     0     0     0
 1985 201    37    35     1    30     0     0     0
 1985 202    38    36     1    30     0     0     0
 1985 203    39    37     1    30     0     0     0
 1985 204    40    38     1    30     0     0     0
 1985 205    41    39     1    30     0     0     0
 1985 206    42    40     1    30     0     0     0
 1985 207    43    41     1    30     0     0     0
 1985 208    44    42     1    30     0     0     0
 1985 209    45    43     1    30     0     0     0
 1985 210    46    44     1    30     0     0     0
 1985 211    47    45     2    60     0     0     0
 1985 212    48    46     2    60     0     0     0
 1985 213    49    47     2    60     0     0     0
 1985 214    50    48     2    60     0     0     0
 1985 215    51    49     2    60     0     0     0
 1985 216    52    50     2    60     0     0     0
 1985 217    53    51     2    60     0     0     0
 1985 218    54    52     2    60     0     0     0
 1985 219    55    53     2    60     0     0     0
 1985 220    56    54     2    60     0     0     0
 1985 221    57    55     2    60     0     0     0
 1985 222    58    56     2    60     0     0     0
 1985 223    59    57     2    60     0     0     0
 1985 224    60    58     2    60     0     0     0
 1985 225    61    59     2    60     0     0     0
 1985 226    62    60     2    60     0     0     0
 1985 227    63    61     2    60     0     0     0
 1985 228    64    62     2    60     0     0     0
 1985 229    65    63     2    60     0     0     0
 1985 230    66    64     2    60     0     0     0
 1985 231    67    65     2    60     0     0     0
 1985 232    68    66     2    60     0     0     0
 1985 233    69    67     2    60     0     0     0
 1985 234    70    68     2    60     0     0     0
 1985 235    71    69     2    60     0     0     0
 1985 236    72    70     2    60     0     0     0
 1985 237    73    71     2    60     0     0     0
 1985 238    74    72     2    60     0     0     0
 1985 239    75    73     2    60     0     0     0
 1985 240    76    74     2    60     0     0     0
 1985 241    77    75     2    60     0     0     0
 1985 242    78    76     2    60     0     0     0
 1985 243    79    77     2    60     0     0     0
 1985 244    80    78     2    60     0     0     0
 1985 245    81    79     2    60     0     0     0
 1985 246    82    80     2    60     0     0     0
 1985 247    83    81     2    60     0     0     0
 1985 248    84    82     2    60     0     0     0
 1985 249    85    83     2    60     0     0     0
 1985 250    86    84     2    60     0     0     0
 1985 251    87    85     2    60     0     0     0
 1985 252    88    86     2    60     0     0     0
 1985 253    89    87     2    60     0     0     0
 1985 254    90    88     2    60     0     0     0
 1985 255    91    89     2    60     0     0     0
 1985 256    92    90     2    60     0     0     0
 1985 257    93    91     2    60     0     0     0
 1985 258    94    92     2    60     0     0     0
 1985 259    95    93     2    60     0     0     0
 1985 260    96    94     2    60     0     0     0
 1985 261    97    95     2    60     0     0     0
 1985 262    98    96     2    60     0     0     0
 1985 263    99    97     2    60     0     0     0
 1985 264   100    98     2    60     0     0     0
 1985 265   101    99     2    60     0     0     0
 1985 266   102   100     2    60     0     0     0
 1985 267   103   101     2    60     0     0     0
 1985 268   104   102     2    60     0     0     0
 1985 269   105   103     2    60     0     0     0
 1985 270   106   104     2    60     0     0     0
 1985 271   107   105     2    60     0     0     0
 1985 272   108   106     2    60     0     0     0
 1985 273   109   107     2    60     0     0     0
 1985 274   110   108     2    60     0     0     0
 1985 275   111   109     2    60     0     0     0
 1985 276   112   110     2    60     0     0     0
 1985 277   113   111     2    60     0     0     0
 1985 278   114   112     2    60     0     0     0
 1985 279   115   113     2    60     0     0     0
 1985 280   116   114     2    60     0     0     0
 1985 281   117   115     2    60     0     0     0
 1985 282   118   116     2    60     0     0     0
 1985 283   119   117     2    60     0     0     0
 1985 284   120   118     2    60     0     0     0
 1985 285   121   119     2    60     0     0     0
 1985 286   122   120     2    60     0     0     0
 1985 287   123   121     2    60     0     0     0
 1985 288   124   122     2    60     0     0     0
 1985 289   125   123     2    60     0     0     0
 1985 290   126   124     2    60     0     0     0
 1985 291   127   125     2    60     0     0     0
 1985 292   128   126     2    60     0     0     0
 1985 293   129   127     2    60     0     0     0
 1985 294   130   128     2    60     0     0     0
 1985 295   131   129     2    60     0     0     0
 1985 296   132   130     2    60     0     0     0
 1985 297   133   131     2    60     0     0     0
 1985 298   134   132     2    60     0     0     0
 1985 299   135   133     2    60     0     0     0
 1985 300   136   134     2    60     0     0     0
 1985 301   137   135     2    60     0     0     0
 1985 302   138   136     2    60     0     0     0
 1985 303   139   137     2    60     0     0     0
 1985 304   140   138     2    60     0     0     0
 1985 305   141   139     2    60     0     0     0
 1985 306   142   140     2    60     0     0     0
 1985 307   143   141     2    60     0     0     0
 1985 308   144   142     2    60     0     0     0
 1985 309   145   143     2    60     0     0     0
 1985 310   146   144     2    60     0     0     0
 1985 311   147   145     2    60     0     0     0

*DSSAT Cropping System Model Ver. 4.7.5.008 -release  JAN 07, 2021 20:14:37

*RUN   6        : ERiMA DCC1                MZCER047 ETMZmelk    1
 MODEL          : MZCER047 - Maize
 EXPERIMENT     : ETMZmelk SN MELKSSAL
 DATA PATH      : C:\IRI\Python_Dash\ET_DSS_hist\TEST\
 TREATMENT  1   : ERiMA DCC1                MZCER047
  

@YEAR DOY   DAS   DAP  NAPC  NICM  R#AC RESNC RESPC
 1986 165     1     0     0     0     0     0     0
 1986 166     2     0     1    30     0     0     0
 1986 167     3     1     1    30     0     0     0
 1986 168     4     2     1    30     0     0     0
 1986 169     5     3     1    30     0     0     0
 1986 170     6     4     1    30     0     0     0
 1986 171     7     5     1    30     0     0     0
 1986 172     8     6     1    30     0     0     0
 1986 173     9     7     1    30     0     0     0
 1986 174    10     8     1    30     0     0     0
 1986 175    11     9     1    30     0     0     0
 1986 176    12    10     1    30     0     0     0
 1986 177    13    11     1    30     0     0     0
 1986 178    14    12     1    30     0     0     0
 1986 179    15    13     1    30     0     0     0
 1986 180    16    14     1    30     0     0     0
 1986 181    17    15     1    30     0     0     0
 1986 182    18    16     1    30     0     0     0
 1986 183    19    17     1    30     0     0     0
 1986 184    20    18     1    30     0     0     0
 1986 185    21    19     1    30     0     0     0
 1986 186    22    20     1    30     0     0     0
 1986 187    23    21     1    30     0     0     0
 1986 188    24    22     1    30     0     0     0
 1986 189    25    23     1    30     0     0     0
 1986 190    26    24     1    30     0     0     0
 1986 191    27    25     1    30     0     0     0
 1986 192    28    26     1    30     0     0     0
 1986 193    29    27     1    30     0     0     0
 1986 194    30    28     1    30     0     0     0
 1986 195    31    29     1    30     0     0     0
 1986 196    32    30     1    30     0     0     0
 1986 197    33    31     1    30     0     0     0
 1986 198    34    32     1    30     0     0     0
 1986 199    35    33     1    30     0     0     0
 1986 200    36    34     1    30     0     0     0
 1986 201    37    35     1    30     0     0     0
 1986 202    38    36     1    30     0     0     0
 1986 203    39    37     1    30     0     0     0
 1986 204    40    38     1    30     0     0     0
 1986 205    41    39     1    30     0     0     0
 1986 206    42    40     1    30     0     0     0
 1986 207    43    41     1    30     0     0     0
 1986 208    44    42     1    30     0     0     0
 1986 209    45    43     1    30     0     0     0
 1986 210    46    44     1    30     0     0     0
 1986 211    47    45     2    60     0     0     0
 1986 212    48    46     2    60     0     0     0
 1986 213    49    47     2    60     0     0     0
 1986 214    50    48     2    60     0     0     0
 1986 215    51    49     2    60     0     0     0
 1986 216    52    50     2    60     0     0     0
 1986 217    53    51     2    60     0     0     0
 1986 218    54    52     2    60     0     0     0
 1986 219    55    53     2    60     0     0     0
 1986 220    56    54     2    60     0     0     0
 1986 221    57    55     2    60     0     0     0
 1986 222    58    56     2    60     0     0     0
 1986 223    59    57     2    60     0     0     0
 1986 224    60    58     2    60     0     0     0
 1986 225    61    59     2    60     0     0     0
 1986 226    62    60     2    60     0     0     0
 1986 227    63    61     2    60     0     0     0
 1986 228    64    62     2    60     0     0     0
 1986 229    65    63     2    60     0     0     0
 1986 230    66    64     2    60     0     0     0
 1986 231    67    65     2    60     0     0     0
 1986 232    68    66     2    60     0     0     0
 1986 233    69    67     2    60     0     0     0
 1986 234    70    68     2    60     0     0     0
 1986 235    71    69     2    60     0     0     0
 1986 236    72    70     2    60     0     0     0
 1986 237    73    71     2    60     0     0     0
 1986 238    74    72     2    60     0     0     0
 1986 239    75    73     2    60     0     0     0
 1986 240    76    74     2    60     0     0     0
 1986 241    77    75     2    60     0     0     0
 1986 242    78    76     2    60     0     0     0
 1986 243    79    77     2    60     0     0     0
 1986 244    80    78     2    60     0     0     0
 1986 245    81    79     2    60     0     0     0
 1986 246    82    80     2    60     0     0     0
 1986 247    83    81     2    60     0     0     0
 1986 248    84    82     2    60     0     0     0
 1986 249    85    83     2    60     0     0     0
 1986 250    86    84     2    60     0     0     0
 1986 251    87    85     2    60     0     0     0
 1986 252    88    86     2    60     0     0     0
 1986 253    89    87     2    60     0     0     0
 1986 254    90    88     2    60     0     0     0
 1986 255    91    89     2    60     0     0     0
 1986 256    92    90     2    60     0     0     0
 1986 257    93    91     2    60     0     0     0
 1986 258    94    92     2    60     0     0     0
 1986 259    95    93     2    60     0     0     0
 1986 260    96    94     2    60     0     0     0
 1986 261    97    95     2    60     0     0     0
 1986 262    98    96     2    60     0     0     0
 1986 263    99    97     2    60     0     0     0
 1986 264   100    98     2    60     0     0     0
 1986 265   101    99     2    60     0     0     0
 1986 266   102   100     2    60     0     0     0
 1986 267   103   101     2    60     0     0     0
 1986 268   104   102     2    60     0     0     0
 1986 269   105   103     2    60     0     0     0
 1986 270   106   104     2    60     0     0     0
 1986 271   107   105     2    60     0     0     0
 1986 272   108   106     2    60     0     0     0
 1986 273   109   107     2    60     0     0     0
 1986 274   110   108     2    60     0     0     0
 1986 275   111   109     2    60     0     0     0
 1986 276   112   110     2    60     0     0     0
 1986 277   113   111     2    60     0     0     0
 1986 278   114   112     2    60     0     0     0
 1986 279   115   113     2    60     0     0     0
 1986 280   116   114     2    60     0     0     0
 1986 281   117   115     2    60     0     0     0
 1986 282   118   116     2    60     0     0     0
 1986 283   119   117     2    60     0     0     0
 1986 284   120   118     2    60     0     0     0
 1986 285   121   119     2    60     0     0     0
 1986 286   122   120     2    60     0     0     0
 1986 287   123   121     2    60     0     0     0
 1986 288   124   122     2    60     0     0     0
 1986 289   125   123     2    60     0     0     0
 1986 290   126   124     2    60     0     0     0
 1986 291   127   125     2    60     0     0     0
 1986 292   128   126     2    60     0     0     0
 1986 293   129   127     2    60     0     0     0

*DSSAT Cropping System Model Ver. 4.7.5.008 -release  JAN 07, 2021 20:14:37

*RUN   7        : ERiMA DCC1                MZCER047 ETMZmelk    1
 MODEL          : MZCER047 - Maize
 EXPERIMENT     : ETMZmelk SN MELKSSAL
 DATA PATH      : C:\IRI\Python_Dash\ET_DSS_hist\TEST\
 TREATMENT  1   : ERiMA DCC1                MZCER047
  

@YEAR DOY   DAS   DAP  NAPC  NICM  R#AC RESNC RESPC
 1987 165     1     0     0     0     0     0     0
 1987 166     2     0     1    30     0     0     0
 1987 167     3     1     1    30     0     0     0
 1987 168     4     2     1    30     0     0     0
 1987 169     5     3     1    30     0     0     0
 1987 170     6     4     1    30     0     0     0
 1987 171     7     5     1    30     0     0     0
 1987 172     8     6     1    30     0     0     0
 1987 173     9     7     1    30     0     0     0
 1987 174    10     8     1    30     0     0     0
 1987 175    11     9     1    30     0     0     0
 1987 176    12    10     1    30     0     0     0
 1987 177    13    11     1    30     0     0     0
 1987 178    14    12     1    30     0     0     0
 1987 179    15    13     1    30     0     0     0
 1987 180    16    14     1    30     0     0     0
 1987 181    17    15     1    30     0     0     0
 1987 182    18    16     1    30     0     0     0
 1987 183    19    17     1    30     0     0     0
 1987 184    20    18     1    30     0     0     0
 1987 185    21    19     1    30     0     0     0
 1987 186    22    20     1    30     0     0     0
 1987 187    23    21     1    30     0     0     0
 1987 188    24    22     1    30     0     0     0
 1987 189    25    23     1    30     0     0     0
 1987 190    26    24     1    30     0     0     0
 1987 191    27    25     1    30     0     0     0
 1987 192    28    26     1    30     0     0     0
 1987 193    29    27     1    30     0     0     0
 1987 194    30    28     1    30     0     0     0
 1987 195    31    29     1    30     0     0     0
 1987 196    32    30     1    30     0     0     0
 1987 197    33    31     1    30     0     0     0
 1987 198    34    32     1    30     0     0     0
 1987 199    35    33     1    30     0     0     0
 1987 200    36    34     1    30     0     0     0
 1987 201    37    35     1    30     0     0     0
 1987 202    38    36     1    30     0     0     0
 1987 203    39    37     1    30     0     0     0
 1987 204    40    38     1    30     0     0     0
 1987 205    41    39     1    30     0     0     0
 1987 206    42    40     1    30     0     0     0
 1987 207    43    41     1    30     0     0     0
 1987 208    44    42     1    30     0     0     0
 1987 209    45    43     1    30     0     0     0
 1987 210    46    44     1    30     0     0     0
 1987 211    47    45     2    60     0     0     0
 1987 212    48    46     2    60     0     0     0
 1987 213    49    47     2    60     0     0     0
 1987 214    50    48     2    60     0     0     0
 1987 215    51    49     2    60     0     0     0
 1987 216    52    50     2    60     0     0     0
 1987 217    53    51     2    60     0     0     0
 1987 218    54    52     2    60     0     0     0
 1987 219    55    53     2    60     0     0     0
 1987 220    56    54     2    60     0     0     0
 1987 221    57    55     2    60     0     0     0
 1987 222    58    56     2    60     0     0     0
 1987 223    59    57     2    60     0     0     0
 1987 224    60    58     2    60     0     0     0
 1987 225    61    59     2    60     0     0     0
 1987 226    62    60     2    60     0     0     0
 1987 227    63    61     2    60     0     0     0
 1987 228    64    62     2    60     0     0     0
 1987 229    65    63     2    60     0     0     0
 1987 230    66    64     2    60     0     0     0
 1987 231    67    65     2    60     0     0     0
 1987 232    68    66     2    60     0     0     0
 1987 233    69    67     2    60     0     0     0
 1987 234    70    68     2    60     0     0     0
 1987 235    71    69     2    60     0     0     0
 1987 236    72    70     2    60     0     0     0
 1987 237    73    71     2    60     0     0     0
 1987 238    74    72     2    60     0     0     0
 1987 239    75    73     2    60     0     0     0
 1987 240    76    74     2    60     0     0     0
 1987 241    77    75     2    60     0     0     0
 1987 242    78    76     2    60     0     0     0
 1987 243    79    77     2    60     0     0     0
 1987 244    80    78     2    60     0     0     0
 1987 245    81    79     2    60     0     0     0
 1987 246    82    80     2    60     0     0     0
 1987 247    83    81     2    60     0     0     0
 1987 248    84    82     2    60     0     0     0
 1987 249    85    83     2    60     0     0     0
 1987 250    86    84     2    60     0     0     0
 1987 251    87    85     2    60     0     0     0
 1987 252    88    86     2    60     0     0     0
 1987 253    89    87     2    60     0     0     0
 1987 254    90    88     2    60     0     0     0
 1987 255    91    89     2    60     0     0     0
 1987 256    92    90     2    60     0     0     0
 1987 257    93    91     2    60     0     0     0
 1987 258    94    92     2    60     0     0     0
 1987 259    95    93     2    60     0     0     0
 1987 260    96    94     2    60     0     0     0
 1987 261    97    95     2    60     0     0     0
 1987 262    98    96     2    60     0     0     0
 1987 263    99    97     2    60     0     0     0
 1987 264   100    98     2    60     0     0     0
 1987 265   101    99     2    60     0     0     0
 1987 266   102   100     2    60     0     0     0
 1987 267   103   101     2    60     0     0     0
 1987 268   104   102     2    60     0     0     0
 1987 269   105   103     2    60     0     0     0
 1987 270   106   104     2    60     0     0     0
 1987 271   107   105     2    60     0     0     0
 1987 272   108   106     2    60     0     0     0
 1987 273   109   107     2    60     0     0     0
 1987 274   110   108     2    60     0     0     0
 1987 275   111   109     2    60     0     0     0
 1987 276   112   110     2    60     0     0     0
 1987 277   113   111     2    60     0     0     0
 1987 278   114   112     2    60     0     0     0
 1987 279   115   113     2    60     0     0     0
 1987 280   116   114     2    60     0     0     0
 1987 281   117   115     2    60     0     0     0
 1987 282   118   116     2    60     0     0     0
 1987 283   119   117     2    60     0     0     0
 1987 284   120   118     2    60     0     0     0
 1987 285   121   119     2    60     0     0     0
 1987 286   122   120     2    60     0     0     0
 1987 287   123   121     2    60     0     0     0
 1987 288   124   122     2    60     0     0     0
 1987 289   125   123     2    60     0     0     0
 1987 290   126   124     2    60     0     0     0
 1987 291   127   125     2    60     0     0     0
 1987 292   128   126     2    60     0     0     0

*DSSAT Cropping System Model Ver. 4.7.5.008 -release  JAN 07, 2021 20:14:37

*RUN   8        : ERiMA DCC1                MZCER047 ETMZmelk    1
 MODEL          : MZCER047 - Maize
 EXPERIMENT     : ETMZmelk SN MELKSSAL
 DATA PATH      : C:\IRI\Python_Dash\ET_DSS_hist\TEST\
 TREATMENT  1   : ERiMA DCC1                MZCER047
  

@YEAR DOY   DAS   DAP  NAPC  NICM  R#AC RESNC RESPC
 1988 165     1     0     0     0     0     0     0
 1988 166     2     0     1    30     0     0     0
 1988 167     3     1     1    30     0     0     0
 1988 168     4     2     1    30     0     0     0
 1988 169     5     3     1    30     0     0     0
 1988 170     6     4     1    30     0     0     0
 1988 171     7     5     1    30     0     0     0
 1988 172     8     6     1    30     0     0     0
 1988 173     9     7     1    30     0     0     0
 1988 174    10     8     1    30     0     0     0
 1988 175    11     9     1    30     0     0     0
 1988 176    12    10     1    30     0     0     0
 1988 177    13    11     1    30     0     0     0
 1988 178    14    12     1    30     0     0     0
 1988 179    15    13     1    30     0     0     0
 1988 180    16    14     1    30     0     0     0
 1988 181    17    15     1    30     0     0     0
 1988 182    18    16     1    30     0     0     0
 1988 183    19    17     1    30     0     0     0
 1988 184    20    18     1    30     0     0     0
 1988 185    21    19     1    30     0     0     0
 1988 186    22    20     1    30     0     0     0
 1988 187    23    21     1    30     0     0     0
 1988 188    24    22     1    30     0     0     0
 1988 189    25    23     1    30     0     0     0
 1988 190    26    24     1    30     0     0     0
 1988 191    27    25     1    30     0     0     0
 1988 192    28    26     1    30     0     0     0
 1988 193    29    27     1    30     0     0     0
 1988 194    30    28     1    30     0     0     0
 1988 195    31    29     1    30     0     0     0
 1988 196    32    30     1    30     0     0     0
 1988 197    33    31     1    30     0     0     0
 1988 198    34    32     1    30     0     0     0
 1988 199    35    33     1    30     0     0     0
 1988 200    36    34     1    30     0     0     0
 1988 201    37    35     1    30     0     0     0
 1988 202    38    36     1    30     0     0     0
 1988 203    39    37     1    30     0     0     0
 1988 204    40    38     1    30     0     0     0
 1988 205    41    39     1    30     0     0     0
 1988 206    42    40     1    30     0     0     0
 1988 207    43    41     1    30     0     0     0
 1988 208    44    42     1    30     0     0     0
 1988 209    45    43     1    30     0     0     0
 1988 210    46    44     1    30     0     0     0
 1988 211    47    45     2    60     0     0     0
 1988 212    48    46     2    60     0     0     0
 1988 213    49    47     2    60     0     0     0
 1988 214    50    48     2    60     0     0     0
 1988 215    51    49     2    60     0     0     0
 1988 216    52    50     2    60     0     0     0
 1988 217    53    51     2    60     0     0     0
 1988 218    54    52     2    60     0     0     0
 1988 219    55    53     2    60     0     0     0
 1988 220    56    54     2    60     0     0     0
 1988 221    57    55     2    60     0     0     0
 1988 222    58    56     2    60     0     0     0
 1988 223    59    57     2    60     0     0     0
 1988 224    60    58     2    60     0     0     0
 1988 225    61    59     2    60     0     0     0
 1988 226    62    60     2    60     0     0     0
 1988 227    63    61     2    60     0     0     0
 1988 228    64    62     2    60     0     0     0
 1988 229    65    63     2    60     0     0     0
 1988 230    66    64     2    60     0     0     0
 1988 231    67    65     2    60     0     0     0
 1988 232    68    66     2    60     0     0     0
 1988 233    69    67     2    60     0     0     0
 1988 234    70    68     2    60     0     0     0
 1988 235    71    69     2    60     0     0     0
 1988 236    72    70     2    60     0     0     0
 1988 237    73    71     2    60     0     0     0
 1988 238    74    72     2    60     0     0     0
 1988 239    75    73     2    60     0     0     0
 1988 240    76    74     2    60     0     0     0
 1988 241    77    75     2    60     0     0     0
 1988 242    78    76     2    60     0     0     0
 1988 243    79    77     2    60     0     0     0
 1988 244    80    78     2    60     0     0     0
 1988 245    81    79     2    60     0     0     0
 1988 246    82    80     2    60     0     0     0
 1988 247    83    81     2    60     0     0     0
 1988 248    84    82     2    60     0     0     0
 1988 249    85    83     2    60     0     0     0
 1988 250    86    84     2    60     0     0     0
 1988 251    87    85     2    60     0     0     0
 1988 252    88    86     2    60     0     0     0
 1988 253    89    87     2    60     0     0     0
 1988 254    90    88     2    60     0     0     0
 1988 255    91    89     2    60     0     0     0
 1988 256    92    90     2    60     0     0     0
 1988 257    93    91     2    60     0     0     0
 1988 258    94    92     2    60     0     0     0
 1988 259    95    93     2    60     0     0     0
 1988 260    96    94     2    60     0     0     0
 1988 261    97    95     2    60     0     0     0
 1988 262    98    96     2    60     0     0     0
 1988 263    99    97     2    60     0     0     0
 1988 264   100    98     2    60     0     0     0
 1988 265   101    99     2    60     0     0     0
 1988 266   102   100     2    60     0     0     0
 1988 267   103   101     2    60     0     0     0
 1988 268   104   102     2    60     0     0     0
 1988 269   105   103     2    60     0     0     0
 1988 270   106   104     2    60     0     0     0
 1988 271   107   105     2    60     0     0     0
 1988 272   108   106     2    60     0     0     0
 1988 273   109   107     2    60     0     0     0
 1988 274   110   108     2    60     0     0     0
 1988 275   111   109     2    60     0     0     0
 1988 276   112   110     2    60     0     0     0
 1988 277   113   111     2    60     0     0     0
 1988 278   114   112     2    60     0     0     0
 1988 279   115   113     2    60     0     0     0
 1988 280   116   114     2    60     0     0     0
 1988 281   117   115     2    60     0     0     0
 1988 282   118   116     2    60     0     0     0
 1988 283   119   117     2    60     0     0     0
 1988 284   120   118     2    60     0     0     0
 1988 285   121   119     2    60     0     0     0
 1988 286   122   120     2    60     0     0     0
 1988 287   123   121     2    60     0     0     0
 1988 288   124   122     2    60     0     0     0
 1988 289   125   123     2    60     0     0     0
 1988 290   126   124     2    60     0     0     0
 1988 291   127   125     2    60     0     0     0
 1988 292   128   126     2    60     0     0     0
 1988 293   129   127     2    60     0     0     0
 1988 294   130   128     2    60     0     0     0
 1988 295   131   129     2    60     0     0     0
 1988 296   132   130     2    60     0     0     0
 1988 297   133   131     2    60     0     0     0
 1988 298   134   132     2    60     0     0     0
 1988 299   135   133     2    60     0     0     0
 1988 300   136   134     2    60     0     0     0
 1988 301   137   135     2    60     0     0     0
 1988 302   138   136     2    60     0     0     0
 1988 303   139   137     2    60     0     0     0
 1988 304   140   138     2    60     0     0     0

*DSSAT Cropping System Model Ver. 4.7.5.008 -release  JAN 07, 2021 20:14:37

*RUN   9        : ERiMA DCC1                MZCER047 ETMZmelk    1
 MODEL          : MZCER047 - Maize
 EXPERIMENT     : ETMZmelk SN MELKSSAL
 DATA PATH      : C:\IRI\Python_Dash\ET_DSS_hist\TEST\
 TREATMENT  1   : ERiMA DCC1                MZCER047
  

@YEAR DOY   DAS   DAP  NAPC  NICM  R#AC RESNC RESPC
 1989 165     1     0     0     0     0     0     0
 1989 166     2     0     1    30     0     0     0
 1989 167     3     1     1    30     0     0     0
 1989 168     4     2     1    30     0     0     0
 1989 169     5     3     1    30     0     0     0
 1989 170     6     4     1    30     0     0     0
 1989 171     7     5     1    30     0     0     0
 1989 172     8     6     1    30     0     0     0
 1989 173     9     7     1    30     0     0     0
 1989 174    10     8     1    30     0     0     0
 1989 175    11     9     1    30     0     0     0
 1989 176    12    10     1    30     0     0     0
 1989 177    13    11     1    30     0     0     0
 1989 178    14    12     1    30     0     0     0
 1989 179    15    13     1    30     0     0     0
 1989 180    16    14     1    30     0     0     0
 1989 181    17    15     1    30     0     0     0
 1989 182    18    16     1    30     0     0     0
 1989 183    19    17     1    30     0     0     0
 1989 184    20    18     1    30     0     0     0
 1989 185    21    19     1    30     0     0     0
 1989 186    22    20     1    30     0     0     0
 1989 187    23    21     1    30     0     0     0
 1989 188    24    22     1    30     0     0     0
 1989 189    25    23     1    30     0     0     0
 1989 190    26    24     1    30     0     0     0
 1989 191    27    25     1    30     0     0     0
 1989 192    28    26     1    30     0     0     0
 1989 193    29    27     1    30     0     0     0
 1989 194    30    28     1    30     0     0     0
 1989 195    31    29     1    30     0     0     0
 1989 196    32    30     1    30     0     0     0
 1989 197    33    31     1    30     0     0     0
 1989 198    34    32     1    30     0     0     0
 1989 199    35    33     1    30     0     0     0
 1989 200    36    34     1    30     0     0     0
 1989 201    37    35     1    30     0     0     0
 1989 202    38    36     1    30     0     0     0
 1989 203    39    37     1    30     0     0     0
 1989 204    40    38     1    30     0     0     0
 1989 205    41    39     1    30     0     0     0
 1989 206    42    40     1    30     0     0     0
 1989 207    43    41     1    30     0     0     0
 1989 208    44    42     1    30     0     0     0
 1989 209    45    43     1    30     0     0     0
 1989 210    46    44     1    30     0     0     0
 1989 211    47    45     2    60     0     0     0
 1989 212    48    46     2    60     0     0     0
 1989 213    49    47     2    60     0     0     0
 1989 214    50    48     2    60     0     0     0
 1989 215    51    49     2    60     0     0     0
 1989 216    52    50     2    60     0     0     0
 1989 217    53    51     2    60     0     0     0
 1989 218    54    52     2    60     0     0     0
 1989 219    55    53     2    60     0     0     0
 1989 220    56    54     2    60     0     0     0
 1989 221    57    55     2    60     0     0     0
 1989 222    58    56     2    60     0     0     0
 1989 223    59    57     2    60     0     0     0
 1989 224    60    58     2    60     0     0     0
 1989 225    61    59     2    60     0     0     0
 1989 226    62    60     2    60     0     0     0
 1989 227    63    61     2    60     0     0     0
 1989 228    64    62     2    60     0     0     0
 1989 229    65    63     2    60     0     0     0
 1989 230    66    64     2    60     0     0     0
 1989 231    67    65     2    60     0     0     0
 1989 232    68    66     2    60     0     0     0
 1989 233    69    67     2    60     0     0     0
 1989 234    70    68     2    60     0     0     0
 1989 235    71    69     2    60     0     0     0
 1989 236    72    70     2    60     0     0     0
 1989 237    73    71     2    60     0     0     0
 1989 238    74    72     2    60     0     0     0
 1989 239    75    73     2    60     0     0     0
 1989 240    76    74     2    60     0     0     0
 1989 241    77    75     2    60     0     0     0
 1989 242    78    76     2    60     0     0     0
 1989 243    79    77     2    60     0     0     0
 1989 244    80    78     2    60     0     0     0
 1989 245    81    79     2    60     0     0     0
 1989 246    82    80     2    60     0     0     0
 1989 247    83    81     2    60     0     0     0
 1989 248    84    82     2    60     0     0     0
 1989 249    85    83     2    60     0     0     0
 1989 250    86    84     2    60     0     0     0
 1989 251    87    85     2    60     0     0     0
 1989 252    88    86     2    60     0     0     0
 1989 253    89    87     2    60     0     0     0
 1989 254    90    88     2    60     0     0     0
 1989 255    91    89     2    60     0     0     0
 1989 256    92    90     2    60     0     0     0
 1989 257    93    91     2    60     0     0     0
 1989 258    94    92     2    60     0     0     0
 1989 259    95    93     2    60     0     0     0
 1989 260    96    94     2    60     0     0     0
 1989 261    97    95     2    60     0     0     0
 1989 262    98    96     2    60     0     0     0
 1989 263    99    97     2    60     0     0     0
 1989 264   100    98     2    60     0     0     0
 1989 265   101    99     2    60     0     0     0
 1989 266   102   100     2    60     0     0     0
 1989 267   103   101     2    60     0     0     0
 1989 268   104   102     2    60     0     0     0
 1989 269   105   103     2    60     0     0     0
 1989 270   106   104     2    60     0     0     0
 1989 271   107   105     2    60     0     0     0
 1989 272   108   106     2    60     0     0     0
 1989 273   109   107     2    60     0     0     0
 1989 274   110   108     2    60     0     0     0
 1989 275   111   109     2    60     0     0     0
 1989 276   112   110     2    60     0     0     0
 1989 277   113   111     2    60     0     0     0
 1989 278   114   112     2    60     0     0     0
 1989 279   115   113     2    60     0     0     0
 1989 280   116   114     2    60     0     0     0
 1989 281   117   115     2    60     0     0     0
 1989 282   118   116     2    60     0     0     0
 1989 283   119   117     2    60     0     0     0
 1989 284   120   118     2    60     0     0     0
 1989 285   121   119     2    60     0     0     0
 1989 286   122   120     2    60     0     0     0
 1989 287   123   121     2    60     0     0     0
 1989 288   124   122     2    60     0     0     0
 1989 289   125   123     2    60     0     0     0
 1989 290   126   124     2    60     0     0     0
 1989 291   127   125     2    60     0     0     0
 1989 292   128   126     2    60     0     0     0
 1989 293   129   127     2    60     0     0     0
 1989 294   130   128     2    60     0     0     0
 1989 295   131   129     2    60     0     0     0
 1989 296   132   130     2    60     0     0     0
 1989 297   133   131     2    60     0     0     0
 1989 298   134   132     2    60     0     0     0
 1989 299   135   133     2    60     0     0     0
 1989 300   136   134     2    60     0     0     0
 1989 301   137   135     2    60     0     0     0

*DSSAT Cropping System Model Ver. 4.7.5.008 -release  JAN 07, 2021 20:14:37

*RUN  10        : ERiMA DCC1                MZCER047 ETMZmelk    1
 MODEL          : MZCER047 - Maize
 EXPERIMENT     : ETMZmelk SN MELKSSAL
 DATA PATH      : C:\IRI\Python_Dash\ET_DSS_hist\TEST\
 TREATMENT  1   : ERiMA DCC1                MZCER047
  

@YEAR DOY   DAS   DAP  NAPC  NICM  R#AC RESNC RESPC
 1990 165     1     0     0     0     0     0     0
 1990 166     2     0     1    30     0     0     0
 1990 167     3     1     1    30     0     0     0
 1990 168     4     2     1    30     0     0     0
 1990 169     5     3     1    30     0     0     0
 1990 170     6     4     1    30     0     0     0
 1990 171     7     5     1    30     0     0     0
 1990 172     8     6     1    30     0     0     0
 1990 173     9     7     1    30     0     0     0
 1990 174    10     8     1    30     0     0     0
 1990 175    11     9     1    30     0     0     0
 1990 176    12    10     1    30     0     0     0
 1990 177    13    11     1    30     0     0     0
 1990 178    14    12     1    30     0     0     0
 1990 179    15    13     1    30     0     0     0
 1990 180    16    14     1    30     0     0     0
 1990 181    17    15     1    30     0     0     0
 1990 182    18    16     1    30     0     0     0
 1990 183    19    17     1    30     0     0     0
 1990 184    20    18     1    30     0     0     0
 1990 185    21    19     1    30     0     0     0
 1990 186    22    20     1    30     0     0     0
 1990 187    23    21     1    30     0     0     0
 1990 188    24    22     1    30     0     0     0
 1990 189    25    23     1    30     0     0     0
 1990 190    26    24     1    30     0     0     0
 1990 191    27    25     1    30     0     0     0
 1990 192    28    26     1    30     0     0     0
 1990 193    29    27     1    30     0     0     0
 1990 194    30    28     1    30     0     0     0
 1990 195    31    29     1    30     0     0     0
 1990 196    32    30     1    30     0     0     0
 1990 197    33    31     1    30     0     0     0
 1990 198    34    32     1    30     0     0     0
 1990 199    35    33     1    30     0     0     0
 1990 200    36    34     1    30     0     0     0
 1990 201    37    35     1    30     0     0     0
 1990 202    38    36     1    30     0     0     0
 1990 203    39    37     1    30     0     0     0
 1990 204    40    38     1    30     0     0     0
 1990 205    41    39     1    30     0     0     0
 1990 206    42    40     1    30     0     0     0
 1990 207    43    41     1    30     0     0     0
 1990 208    44    42     1    30     0     0     0
 1990 209    45    43     1    30     0     0     0
 1990 210    46    44     1    30     0     0     0
 1990 211    47    45     2    60     0     0     0
 1990 212    48    46     2    60     0     0     0
 1990 213    49    47     2    60     0     0     0
 1990 214    50    48     2    60     0     0     0
 1990 215    51    49     2    60     0     0     0
 1990 216    52    50     2    60     0     0     0
 1990 217    53    51     2    60     0     0     0
 1990 218    54    52     2    60     0     0     0
 1990 219    55    53     2    60     0     0     0
 1990 220    56    54     2    60     0     0     0
 1990 221    57    55     2    60     0     0     0
 1990 222    58    56     2    60     0     0     0
 1990 223    59    57     2    60     0     0     0
 1990 224    60    58     2    60     0     0     0
 1990 225    61    59     2    60     0     0     0
 1990 226    62    60     2    60     0     0     0
 1990 227    63    61     2    60     0     0     0
 1990 228    64    62     2    60     0     0     0
 1990 229    65    63     2    60     0     0     0
 1990 230    66    64     2    60     0     0     0
 1990 231    67    65     2    60     0     0     0
 1990 232    68    66     2    60     0     0     0
 1990 233    69    67     2    60     0     0     0
 1990 234    70    68     2    60     0     0     0
 1990 235    71    69     2    60     0     0     0
 1990 236    72    70     2    60     0     0     0
 1990 237    73    71     2    60     0     0     0
 1990 238    74    72     2    60     0     0     0
 1990 239    75    73     2    60     0     0     0
 1990 240    76    74     2    60     0     0     0
 1990 241    77    75     2    60     0     0     0
 1990 242    78    76     2    60     0     0     0
 1990 243    79    77     2    60     0     0     0
 1990 244    80    78     2    60     0     0     0
 1990 245    81    79     2    60     0     0     0
 1990 246    82    80     2    60     0     0     0
 1990 247    83    81     2    60     0     0     0
 1990 248    84    82     2    60     0     0     0
 1990 249    85    83     2    60     0     0     0
 1990 250    86    84     2    60     0     0     0
 1990 251    87    85     2    60     0     0     0
 1990 252    88    86     2    60     0     0     0
 1990 253    89    87     2    60     0     0     0
 1990 254    90    88     2    60     0     0     0
 1990 255    91    89     2    60     0     0     0
 1990 256    92    90     2    60     0     0     0
 1990 257    93    91     2    60     0     0     0
 1990 258    94    92     2    60     0     0     0
 1990 259    95    93     2    60     0     0     0
 1990 260    96    94     2    60     0     0     0
 1990 261    97    95     2    60     0     0     0
 1990 262    98    96     2    60     0     0     0
 1990 263    99    97     2    60     0     0     0
 1990 264   100    98     2    60     0     0     0
 1990 265   101    99     2    60     0     0     0
 1990 266   102   100     2    60     0     0     0
 1990 267   103   101     2    60     0     0     0
 1990 268   104   102     2    60     0     0     0
 1990 269   105   103     2    60     0     0     0
 1990 270   106   104     2    60     0     0     0
 1990 271   107   105     2    60     0     0     0
 1990 272   108   106     2    60     0     0     0
 1990 273   109   107     2    60     0     0     0
 1990 274   110   108     2    60     0     0     0
 1990 275   111   109     2    60     0     0     0
 1990 276   112   110     2    60     0     0     0
 1990 277   113   111     2    60     0     0     0
 1990 278   114   112     2    60     0     0     0
 1990 279   115   113     2    60     0     0     0
 1990 280   116   114     2    60     0     0     0
 1990 281   117   115     2    60     0     0     0
 1990 282   118   116     2    60     0     0     0
 1990 283   119   117     2    60     0     0     0
 1990 284   120   118     2    60     0     0     0
 1990 285   121   119     2    60     0     0     0
 1990 286   122   120     2    60     0     0     0
 1990 287   123   121     2    60     0     0     0
 1990 288   124   122     2    60     0     0     0
 1990 289   125   123     2    60     0     0     0
 1990 290   126   124     2    60     0     0     0
 1990 291   127   125     2    60     0     0     0
 1990 292   128   126     2    60     0     0     0
 1990 293   129   127     2    60     0     0     0
 1990 294   130   128     2    60     0     0     0
 1990 295   131   129     2    60     0     0     0
 1990 296   132   130     2    60     0     0     0
 1990 297   133   131     2    60     0     0     0
 1990 298   134   132     2    60     0     0     0
 1990 299   135   133     2    60     0     0     0
 1990 300   136   134     2    60     0     0     0

*DSSAT Cropping System Model Ver. 4.7.5.008 -release  JAN 07, 2021 20:14:37

*RUN  11        : ERiMA DCC1                MZCER047 ETMZmelk    1
 MODEL          : MZCER047 - Maize
 EXPERIMENT     : ETMZmelk SN MELKSSAL
 DATA PATH      : C:\IRI\Python_Dash\ET_DSS_hist\TEST\
 TREATMENT  1   : ERiMA DCC1                MZCER047
  

@YEAR DOY   DAS   DAP  NAPC  NICM  R#AC RESNC RESPC
 1991 165     1     0     0     0     0     0     0
 1991 166     2     0     1    30     0     0     0
 1991 167     3     1     1    30     0     0     0
 1991 168     4     2     1    30     0     0     0
 1991 169     5     3     1    30     0     0     0
 1991 170     6     4     1    30     0     0     0
 1991 171     7     5     1    30     0     0     0
 1991 172     8     6     1    30     0     0     0
 1991 173     9     7     1    30     0     0     0
 1991 174    10     8     1    30     0     0     0
 1991 175    11     9     1    30     0     0     0
 1991 176    12    10     1    30     0     0     0
 1991 177    13    11     1    30     0     0     0
 1991 178    14    12     1    30     0     0     0
 1991 179    15    13     1    30     0     0     0
 1991 180    16    14     1    30     0     0     0
 1991 181    17    15     1    30     0     0     0
 1991 182    18    16     1    30     0     0     0
 1991 183    19    17     1    30     0     0     0
 1991 184    20    18     1    30     0     0     0
 1991 185    21    19     1    30     0     0     0
 1991 186    22    20     1    30     0     0     0
 1991 187    23    21     1    30     0     0     0
 1991 188    24    22     1    30     0     0     0
 1991 189    25    23     1    30     0     0     0
 1991 190    26    24     1    30     0     0     0
 1991 191    27    25     1    30     0     0     0
 1991 192    28    26     1    30     0     0     0
 1991 193    29    27     1    30     0     0     0
 1991 194    30    28     1    30     0     0     0
 1991 195    31    29     1    30     0     0     0
 1991 196    32    30     1    30     0     0     0
 1991 197    33    31     1    30     0     0     0
 1991 198    34    32     1    30     0     0     0
 1991 199    35    33     1    30     0     0     0
 1991 200    36    34     1    30     0     0     0
 1991 201    37    35     1    30     0     0     0
 1991 202    38    36     1    30     0     0     0
 1991 203    39    37     1    30     0     0     0
 1991 204    40    38     1    30     0     0     0
 1991 205    41    39     1    30     0     0     0
 1991 206    42    40     1    30     0     0     0
 1991 207    43    41     1    30     0     0     0
 1991 208    44    42     1    30     0     0     0
 1991 209    45    43     1    30     0     0     0
 1991 210    46    44     1    30     0     0     0
 1991 211    47    45     2    60     0     0     0
 1991 212    48    46     2    60     0     0     0
 1991 213    49    47     2    60     0     0     0
 1991 214    50    48     2    60     0     0     0
 1991 215    51    49     2    60     0     0     0
 1991 216    52    50     2    60     0     0     0
 1991 217    53    51     2    60     0     0     0
 1991 218    54    52     2    60     0     0     0
 1991 219    55    53     2    60     0     0     0
 1991 220    56    54     2    60     0     0     0
 1991 221    57    55     2    60     0     0     0
 1991 222    58    56     2    60     0     0     0
 1991 223    59    57     2    60     0     0     0
 1991 224    60    58     2    60     0     0     0
 1991 225    61    59     2    60     0     0     0
 1991 226    62    60     2    60     0     0     0
 1991 227    63    61     2    60     0     0     0
 1991 228    64    62     2    60     0     0     0
 1991 229    65    63     2    60     0     0     0
 1991 230    66    64     2    60     0     0     0
 1991 231    67    65     2    60     0     0     0
 1991 232    68    66     2    60     0     0     0
 1991 233    69    67     2    60     0     0     0
 1991 234    70    68     2    60     0     0     0
 1991 235    71    69     2    60     0     0     0
 1991 236    72    70     2    60     0     0     0
 1991 237    73    71     2    60     0     0     0
 1991 238    74    72     2    60     0     0     0
 1991 239    75    73     2    60     0     0     0
 1991 240    76    74     2    60     0     0     0
 1991 241    77    75     2    60     0     0     0
 1991 242    78    76     2    60     0     0     0
 1991 243    79    77     2    60     0     0     0
 1991 244    80    78     2    60     0     0     0
 1991 245    81    79     2    60     0     0     0
 1991 246    82    80     2    60     0     0     0
 1991 247    83    81     2    60     0     0     0
 1991 248    84    82     2    60     0     0     0
 1991 249    85    83     2    60     0     0     0
 1991 250    86    84     2    60     0     0     0
 1991 251    87    85     2    60     0     0     0
[...]
 2012 208    44    42     1    30     0     0     0
 2012 209    45    43     1    30     0     0     0
 2012 210    46    44     1    30     0     0     0
 2012 211    47    45     2    60     0     0     0
 2012 212    48    46     2    60     0     0     0
 2012 213    49    47     2    60     0     0     0
 2012 214    50    48     2    60     0     0     0
 2012 215    51    49     2    60     0     0     0
 2012 216    52    50     2    60     0     0     0
 2012 217    53    51     2    60     0     0     0
 2012 218    54    52     2    60     0     0     0
 2012 219    55    53     2    60     0     0     0
 2012 220    56    54     2    60     0     0     0
 2012 221    57    55     2    60     0     0     0
 2012 222    58    56     2    60     0     0     0
 2012 223    59    57     2    60     0     0     0
 2012 224    60    58     2    60     0     0     0
 2012 225    61    59     2    60     0     0     0
 2012 226    62    60     2    60     0     0     0
 2012 227    63    61     2    60     0     0     0
 2012 228    64    62     2    60     0     0     0
 2012 229    65    63     2    60     0     0     0
 2012 230    66    64     2    60     0     0     0
 2012 231    67    65     2    60     0     0     0
 2012 232    68    66     2    60     0     0     0
 2012 233    69    67     2    60     0     0     0
 2012 234    70    68     2    60     0     0     0
 2012 235    71    69     2    60     0     0     0
 2012 236    72    70     2    60     0     0     0
 2012 237    73    71     2    60     0     0     0
 2012 238    74    72     2    60     0     0     0
 2012 239    75    73     2    60     0     0     0
 2012 240    76    74     2    60     0     0     0
 2012 241    77    75     2    60     0     0     0
 2012 242    78    76     2    60     0     0     0
 2012 243    79    77     2    60     0     0     0
 2012 244    80    78     2    60     0     0     0
 2012 245    81    79     2    60     0     0     0
 2012 246    82    80     2    60     0     0     0
 2012 247    83    81     2    60     0     0     0
 2012 248    84    82     2    60     0     0     0
 2012 249    85    83     2    60     0     0     0
 2012 250    86    84     2    60     0     0     0
 2012 251    87    85     2    60     0     0     0
 2012 252    88    86     2    60     0     0     0
 2012 253    89    87     2    60     0     0     0
 2012 254    90    88     2    60     0     0     0
 2012 255    91    89     2    60     0     0     0
 2012 256    92    90     2    60     0     0     0
 2012 257    93    91     2    60     0     0     0
 2012 258    94    92     2    60     0     0     0
 2012 259    95    93     2    60     0     0     0
 2012 260    96    94     2    60     0     0     0
 2012 261    97    95     2    60     0     0     0
 2012 262    98    96     2    60     0     0     0
 2012 263    99    97     2    60     0     0     0
 2012 264   100    98     2    60     0     0     0
 2012 265   101    99     2    60     0     0     0
 2012 266   102   100     2    60     0     0     0
 2012 267   103   101     2    60     0     0     0
 2012 268   104   102     2    60     0     0     0
 2012 269   105   103     2    60     0     0     0
 2012 270   106   104     2    60     0     0     0
 2012 271   107   105     2    60     0     0     0
 2012 272   108   106     2    60     0     0     0
 2012 273   109   107     2    60     0     0     0
 2012 274   110   108     2    60     0     0     0
 2012 275   111   109     2    60     0     0     0
 2012 276   112   110     2    60     0     0     0
 2012 277   113   111     2    60     0     0     0
 2012 278   114   112     2    60     0     0     0
 2012 279   115   113     2    60     0     0     0
 2012 280   116   114     2    60     0     0     0
 2012 281   117   115     2    60     0     0     0
 2012 282   118   116     2    60     0     0     0
 2012 283   119   117     2    60     0     0     0
 2012 284   120   118     2    60     0     0     0
 2012 285   121   119     2    60     0     0     0
 2012 286   122   120     2    60     0     0     0
 2012 287   123   121     2    60     0     0     0
 2012 288   124   122     2    60     0     0     0
 2012 289   125   123     2    60     0     0     0
 2012 290   126   124     2    60     0     0     0
 2012 291   127   125     2    60     0     0     0
 2012 292   128   126     2    60     0     0     0
 2012 293   129   127     2    60     0     0     0
 2012 294   130   128     2    60     0     0     0
 2012 295   131   129     2    60     0     0     0
 2012 296   132   130     2    60     0     0     0
 2012 297   133   131     2    60     0     0     0
 2012 298   134   132     2    60     0     0     0
 2012 299   135   133     2    60     0     0     0
 2012 300   136   134     2    60     0     0     0
 2012 301   137   135     2    60     0     0     0
 2012 302   138   136     2    60     0     0     0
 2012 303   139   137     2    60     0     0     0

*DSSAT Cropping System Model Ver. 4.7.5.008 -release  JAN 07, 2021 20:14:52

*RUN  67        : ERiMA DCC1                MZCER047 ETMZawas    1
 MODEL          : MZCER047 - Maize
 EXPERIMENT     : ETMZawas SN MELKSSAL
 DATA PATH      : C:\IRI\Python_Dash\ET_DSS_hist\TEST\
 TREATMENT  1   : ERiMA DCC1                MZCER047
  

@YEAR DOY   DAS   DAP  NAPC  NICM  R#AC RESNC RESPC
 2013 165     1     0     0     0     0     0     0
 2013 166     2     0     1    30     0     0     0
 2013 167     3     1     1    30     0     0     0
 2013 168     4     2     1    30     0     0     0
 2013 169     5     3     1    30     0     0     0
 2013 170     6     4     1    30     0     0     0
 2013 171     7     5     1    30     0     0     0
 2013 172     8     6     1    30     0     0     0
 2013 173     9     7     1    30     0     0     0
 2013 174    10     8     1    30     0     0     0
 2013 175    11     9     1    30     0     0     0
 2013 176    12    10     1    30     0     0     0
 2013 177    13    11     1    30     0     0     0
 2013 178    14    12     1    30     0     0     0
 2013 179    15    13     1    30     0     0     0
 2013 180    16    14     1    30     0     0     0
 2013 181    17    15     1    30     0     0     0
 2013 182    18    16     1    30     0     0     0
 2013 183    19    17     1    30     0     0     0
 2013 184    20    18     1    30     0     0     0
 2013 185    21    19     1    30     0     0     0
 2013 186    22    20     1    30     0     0     0
 2013 187    23    21     1    30     0     0     0
 2013 188    24    22     1    30     0     0     0
 2013 189    25    23     1    30     0     0     0
 2013 190    26    24     1    30     0     0     0
 2013 191    27    25     1    30     0     0     0
 2013 192    28    26     1    30     0     0     0
 2013 193    29    27     1    30     0     0     0
 2013 194    30    28     1    30     0     0     0
 2013 195    31    29     1    30     0     0     0
 2013 196    32    30     1    30     0     0     0
 2013 197    33    31     1    30     0     0     0
 2013 198    34    32     1    30     0     0     0
 2013 199    35    33     1    30     0     0     0
 2013 200    36    34     1    30     0     0     0
 2013 201    37    35     1    30     0     0     0
 2013 202    38    36     1    30     0     0     0
 2013 203    39    37     1    30     0     0     0
 2013 204    40    38     1    30     0     0     0
 2013 205    41    39     1    30     0     0     0
 2013 206    42    40     1    30     0     0     0
 2013 207    43    41     1    30     0     0     0
 2013 208    44    42     1    30     0     0     0
 2013 209    45    43     1    30     0     0     0
 2013 210    46    44     1    30     0     0     0
 2013 211    47    45     2    60     0     0     0
 2013 212    48    46     2    60     0     0     0
 2013 213    49    47     2    60     0     0     0
 2013 214    50    48     2    60     0     0     0
 2013 215    51    49     2    60     0     0     0
 2013 216    52    50     2    60     0     0     0
 2013 217    53    51     2    60     0     0     0
 2013 218    54    52     2    60     0     0     0
 2013 219    55    53     2    60     0     0     0
 2013 220    56    54     2    60     0     0     0
 2013 221    57    55     2    60     0     0     0
 2013 222    58    56     2    60     0     0     0
 2013 223    59    57     2    60     0     0     0
 2013 224    60    58     2    60     0     0     0
 2013 225    61    59     2    60     0     0     0
 2013 226    62    60     2    60     0     0     0
 2013 227    63    61     2    60     0     0     0
 2013 228    64    62     2    60     0     0     0
 2013 229    65    63     2    60     0     0     0
 2013 230    66    64     2    60     0     0     0
 2013 231    67    65     2    60     0     0     0
 2013 232    68    66     2    60     0     0     0
 2013 233    69    67     2    60     0     0     0
 2013 234    70    68     2    60     0     0     0
 2013 235    71    69     2    60     0     0     0
 2013 236    72    70     2    60     0     0     0
 2013 237    73    71     2    60     0     0     0
 2013 238    74    72     2    60     0     0     0
 2013 239    75    73     2    60     0     0     0
 2013 240    76    74     2    60     0     0     0
 2013 241    77    75     2    60     0     0     0
 2013 242    78    76     2    60     0     0     0
 2013 243    79    77     2    60     0     0     0
 2013 244    80    78     2    60     0     0     0
 2013 245    81    79     2    60     0     0     0
 2013 246    82    80     2    60     0     0     0
 2013 247    83    81     2    60     0     0     0
 2013 248    84    82     2    60     0     0     0
 2013 249    85    83     2    60     0     0     0
 2013 250    86    84     2    60     0     0     0
 2013 251    87    85     2    60     0     0     0
 2013 252    88    86     2    60     0     0     0
 2013 253    89    87     2    60     0     0     0
 2013 254    90    88     2    60     0     0     0
 2013 255    91    89     2    60     0     0     0
 2013 256    92    90     2    60     0     0     0
 2013 257    93    91     2    60     0     0     0
 2013 258    94    92     2    60     0     0     0
 2013 259    95    93     2    60     0     0     0
 2013 260    96    94     2    60     0     0     0
 2013 261    97    95     2    60     0     0     0
 2013 262    98    96     2    60     0     0     0
 2013 263    99    97     2    60     0     0     0
 2013 264   100    98     2    60     0     0     0
 2013 265   101    99     2    60     0     0     0
 2013 266   102   100     2    60     0     0     0
 2013 267   103   101     2    60     0     0     0
 2013 268   104   102     2    60     0     0     0
 2013 269   105   103     2    60     0     0     0
 2013 270   106   104     2    60     0     0     0
 2013 271   107   105     2    60     0     0     0
 2013 272   108   106     2    60     0     0     0
 2013 273   109   107     2    60     0     0     0
 2013 274   110   108     2    60     0     0     0
 2013 275   111   109     2    60     0     0     0
 2013 276   112   110     2    60     0     0     0
 2013 277   113   111     2    60     0     0     0
 2013 278   114   112     2    60     0     0     0
 2013 279   115   113     2    60     0     0     0
 2013 280   116   114     2    60     0     0     0
 2013 281   117   115     2    60     0     0     0
 2013 282   118   116     2    60     0     0     0
 2013 283   119   117     2    60     0     0     0
 2013 284   120   118     2    60     0     0     0
 2013 285   121   119     2    60     0     0     0
 2013 286   122   120     2    60     0     0     0
 2013 287   123   121     2    60     0     0     0
 2013 288   124   122     2    60     0     0     0
 2013 289   125   123     2    60     0     0     0
 2013 290   126   124     2    60     0     0     0
 2013 291   127   125     2    60     0     0     0
 2013 292   128   126     2    60     0     0     0
 2013 293   129   127     2    60     0     0     0
 2013 294   130   128     2    60     0     0     0
 2013 295   131   129     2    60     0     0     0
 2013 296   132   130     2    60     0     0     0
 2013 297   133   131     2    60     0     0     0
 2013 298   134   132     2    60     0     0     0
 2013 299   135   133     2    60     0     0     0
 2013 300   136   134     2    60     0     0     0
 2013 301   137   135     2    60     0     0     0
 2013 302   138   136     2    60     0     0     0
 2013 303   139   137     2    60     0     0     0
 2013 304   140   138     2    60     0     0     0

*DSSAT Cropping System Model Ver. 4.7.5.008 -release  JAN 07, 2021 20:14:52

*RUN  68        : ERiMA DCC1                MZCER047 ETMZawas    1
 MODEL          : MZCER047 - Maize
 EXPERIMENT     : ETMZawas SN MELKSSAL
 DATA PATH      : C:\IRI\Python_Dash\ET_DSS_hist\TEST\
 TREATMENT  1   : ERiMA DCC1                MZCER047
  

@YEAR DOY   DAS   DAP  NAPC  NICM  R#AC RESNC RESPC
 2014 165     1     0     0     0     0     0     0
 2014 166     2     0     1    30     0     0     0
 2014 167     3     1     1    30     0     0     0
 2014 168     4     2     1    30     0     0     0
 2014 169     5     3     1    30     0     0     0
 2014 170     6     4     1    30     0     0     0
 2014 171     7     5     1    30     0     0     0
 2014 172     8     6     1    30     0     0     0
 2014 173     9     7     1    30     0     0     0
 2014 174    10     8     1    30     0     0     0
 2014 175    11     9     1    30     0     0     0
 2014 176    12    10     1    30     0     0     0
 2014 177    13    11     1    30     0     0     0
 2014 178    14    12     1    30     0     0     0
 2014 179    15    13     1    30     0     0     0
 2014 180    16    14     1    30     0     0     0
 2014 181    17    15     1    30     0     0     0
 2014 182    18    16     1    30     0     0     0
 2014 183    19    17     1    30     0     0     0
 2014 184    20    18     1    30     0     0     0
 2014 185    21    19     1    30     0     0     0
 2014 186    22    20     1    30     0     0     0
 2014 187    23    21     1    30     0     0     0
 2014 188    24    22     1    30     0     0     0
 2014 189    25    23     1    30     0     0     0
 2014 190    26    24     1    30     0     0     0
 2014 191    27    25     1    30     0     0     0
 2014 192    28    26     1    30     0     0     0
 2014 193    29    27     1    30     0     0     0
 2014 194    30    28     1    30     0     0     0
 2014 195    31    29     1    30     0     0     0
 2014 196    32    30     1    30     0     0     0
 2014 197    33    31     1    30     0     0     0
 2014 198    34    32     1    30     0     0     0
 2014 199    35    33     1    30     0     0     0
 2014 200    36    34     1    30     0     0     0
 2014 201    37    35     1    30     0     0     0
 2014 202    38    36     1    30     0     0     0
 2014 203    39    37     1    30     0     0     0
 2014 204    40    38     1    30     0     0     0
 2014 205    41    39     1    30     0     0     0
 2014 206    42    40     1    30     0     0     0
 2014 207    43    41     1    30     0     0     0
 2014 208    44    42     1    30     0     0     0
 2014 209    45    43     1    30     0     0     0
 2014 210    46    44     1    30     0     0     0
 2014 211    47    45     2    60     0     0     0
 2014 212    48    46     2    60     0     0     0
 2014 213    49    47     2    60     0     0     0
 2014 214    50    48     2    60     0     0     0
 2014 215    51    49     2    60     0     0     0
 2014 216    52    50     2    60     0     0     0
 2014 217    53    51     2    60     0     0     0
 2014 218    54    52     2    60     0     0     0
 2014 219    55    53     2    60     0     0     0
 2014 220    56    54     2    60     0     0     0
 2014 221    57    55     2    60     0     0     0
 2014 222    58    56     2    60     0     0     0
 2014 223    59    57     2    60     0     0     0
 2014 224    60    58     2    60     0     0     0
 2014 225    61    59     2    60     0     0     0
 2014 226    62    60     2    60     0     0     0
 2014 227    63    61     2    60     0     0     0
 2014 228    64    62     2    60     0     0     0
 2014 229    65    63     2    60     0     0     0
 2014 230    66    64     2    60     0     0     0
 2014 231    67    65     2    60     0     0     0
 2014 232    68    66     2    60     0     0     0
 2014 233    69    67     2    60     0     0     0
 2014 234    70    68     2    60     0     0     0
 2014 235    71    69     2    60     0     0     0
 2014 236    72    70     2    60     0     0     0
 2014 237    73    71     2    60     0     0     0
 2014 238    74    72     2    60     0     0     0
 2014 239    75    73     2    60     0     0     0
 2014 240    76    74     2    60     0     0     0
 2014 241    77    75     2    60     0     0     0
 2014 242    78    76     2    60     0     0     0
 2014 243    79    77     2    60     0     0     0
 2014 244    80    78     2    60     0     0     0
 2014 245    81    79     2    60     0     0     0
 2014 246    82    80     2    60     0     0     0
 2014 247    83    81     2    60     0     0     0
 2014 248    84    82     2    60     0     0     0
 2014 249    85    83     2    60     0     0     0
 2014 250    86    84     2    60     0     0     0
 2014 251    87    85     2    60     0     0     0
 2014 252    88    86     2    60     0     0     0
 2014 253    89    87     2    60     0     0     0
 2014 254    90    88     2    60     0     0     0
 2014 255    91    89     2    60     0     0     0
 2014 256    92    90     2    60     0     0     0
 2014 257    93    91     2    60     0     0     0
 2014 258    94    92     2    60     0     0     0
 2014 259    95    93     2    60     0     0     0
 2014 260    96    94     2    60     0     0     0
 2014 261    97    95     2    60     0     0     0
 2014 262    98    96     2    60     0     0     0
 2014 263    99    97     2    60     0     0     0
 2014 264   100    98     2    60     0     0     0
 2014 265   101    99     2    60     0     0     0
 2014 266   102   100     2    60     0     0     0
 2014 267   103   101     2    60     0     0     0
 2014 268   104   102     2    60     0     0     0
 2014 269   105   103     2    60     0     0     0
 2014 270   106   104     2    60     0     0     0
 2014 271   107   105     2    60     0     0     0
 2014 272   108   106     2    60     0     0     0
 2014 273   109   107     2    60     0     0     0
 2014 274   110   108     2    60     0     0     0
 2014 275   111   109     2    60     0     0     0
 2014 276   112   110     2    60     0     0     0
 2014 277   113   111     2    60     0     0     0
 2014 278   114   112     2    60     0     0     0
 2014 279   115   113     2    60     0     0     0
 2014 280   116   114     2    60     0     0     0
 2014 281   117   115     2    60     0     0     0
 2014 282   118   116     2    60     0     0     0
 2014 283   119   117     2    60     0     0     0
 2014 284   120   118     2    60     0     0     0
 2014 285   121   119     2    60     0     0     0
 2014 286   122   120     2    60     0     0     0
 2014 287   123   121     2    60     0     0     0
 2014 288   124   122     2    60     0     0     0
 2014 289   125   123     2    60     0     0     0
 2014 290   126   124     2    60     0     0     0
 2014 291   127   125     2    60     0     0     0
 2014 292   128   126     2    60     0     0     0
 2014 293   129   127     2    60     0     0     0
 2014 294   130   128     2    60     0     0     0
 2014 295   131   129     2    60     0     0     0
 2014 296   132   130     2    60     0     0     0
 2014 297   133   131     2    60     0     0     0
