*SIMULATION OVERVIEW FILE

*DSSAT Cropping System Model Ver. 4.7.5.008 -release  JAN 07, 2021 20:14:37

*RUN   1        : ERiMA DCC1                MZCER047 ETMZmelk    1
 MODEL          : MZCER047 - Maize
 EXPERIMENT     : ETMZmelk SN MELKSSAL
 DATA PATH      : C:\IRI\Python_Dash\ET_DSS_hist\TEST\
 TREATMENT  1   : ERiMA DCC1                MZCER047


 CROP           : Maize            CULTIVAR : BH540-Kassie     ECOTYPE :IB0001
 STARTING DATE  : JUN 14 1981
 PLANTING DATE  : JUN 15 1981        PLANTS/m2 :  6.0     ROW SPACING :  75.cm
 WEATHER        : MELK   1981
 SOIL           : ETET001_18     TEXTURE : L     -   ET000_18
 SOIL INITIAL C : DEPTH:200cm EXTR. H2O:300.3mm  NO3: 39.6kg/ha  NH4:  2.4kg/ha
 WATER BALANCE  : RAINFED
 IRRIGATION     : NOT IRRIGATED
 NITROGEN BAL.  : SOIL-N & N-UPTAKE SIMULATION; NO N-FIXATION
 N-FERTILIZER   :       60 kg/ha IN     2 APPLICATIONS
 RESIDUE/MANURE : INITIAL :     0 kg/ha ;       0 kg/ha IN     0 APPLICATIONS
 ENVIRONM. OPT. : DAYL=    0.00  SRAD=    0.00  TMAX=    0.00  TMIN=    0.00
                  RAIN=    0.00  CO2 =    0.00  DEW =    0.00  WIND=    0.00
 SIMULATION OPT : WATER   :Y  NITROGEN:Y  N-FIX:N  PHOSPH :N  PESTS  :N
                  PHOTO   :C  ET      :R  INFIL:S  HYDROL :R  SOM    :G
                  CO2     :D  NSWIT   :1  EVAP :S  SOIL   :2  STEMP  :D
 MANAGEMENT OPT : PLANTING:R  IRRIG   :N  FERT :D  RESIDUE:N  HARVEST:M
                  WEATHER :M  TILLAGE :N

*SUMMARY OF SOIL AND GENETIC INPUT PARAMETERS

   SOIL LOWER UPPER   SAT  EXTR  INIT   ROOT   BULK     pH    NO3    NH4    ORG
  DEPTH LIMIT LIMIT    SW    SW    SW   DIST   DENS                          C
   cm   cm3/cm3    cm3/cm3    cm3/cm3         g/cm3         ugN/g  ugN/g     %
-------------------------------------------------------------------------------
  0-  5 0.166 0.260 0.433 0.094 0.231   1.00   1.20   7.90  15.00   0.10   1.50
  5- 15 0.166 0.260 0.433 0.094 0.231   1.00   1.20   7.90  15.00   0.10   1.50
 15- 20 0.166 0.260 0.433 0.094 0.231   1.00   1.20   7.90  15.00   0.10   1.50
 20- 35 0.121 0.264 0.434 0.143 0.221   0.58   1.20   8.00   2.00   0.10   1.48
 35- 50 0.121 0.316 0.466 0.195 0.316   0.10   1.10   8.30   0.00   0.10   1.46
 50- 65 0.121 0.316 0.466 0.195 0.316   0.10   1.10   8.30   0.00   0.10   1.46
 65- 81 0.134 0.304 0.477 0.170 0.304   0.00   1.00   8.50   0.00   0.10   1.40
 81- 97 0.134 0.304 0.477 0.170 0.304   0.00   1.00   8.50   0.00   0.10   1.40
 97-118 0.156 0.305 0.433 0.149 0.305   0.00   1.28   8.60   0.00   0.10   0.98
118-140 0.156 0.305 0.433 0.149 0.305   0.00   1.28   8.60   0.00   0.10   0.98
140-170 0.162 0.298 0.428 0.136 0.298   0.00   1.36   8.50   0.00   0.10   0.78
170-200 0.173 0.314 0.433 0.141 0.314   0.00   1.33   8.30   0.00   0.10   0.78

TOT-200  29.8  59.8  88.9  30.0  58.6  <--cm   -  kg/ha-->   39.6    2.4 272505
SOIL ALBEDO    : 0.13      EVAPORATION LIMIT : 6.00         MIN. FACTOR  : 1.00
RUNOFF CURVE # :81.00      DRAINAGE RATE     : 0.60         FERT. FACTOR : 0.70

 Maize      CULTIVAR :CIMT01-BH540-Kassie       ECOTYPE :IB0001
 P1     : 220.10  P2     : 0.8600  P5     : 840.10
 G2     : 266.20  G3     : 10.650  PHINT  : 38.900


*SIMULATED CROP AND SOIL STATUS AT MAIN DEVELOPMENT STAGES

 RUN NO.     1     ERiMA DCC1              

        CROP GROWTH     BIOMASS         LEAF   CROP N     STRESS      STRESS                                           
   DATE  AGE STAGE        kg/ha    LAI   NUM  kg/ha  %   H2O  Nitr Phos1 Phos2  RSTG                                   
 ------  --- ----------   -----  -----  ----  ---  ---  ----  ----  ----  ----  ----                                   
 14 JUN    0 Start Sim        0   0.00   0.0    0  0.0  0.00  0.00  0.00  0.00     7
 15 JUN    0 Sowing           0   0.00   0.0    0  0.0  0.00  0.00  0.00  0.00     8
 16 JUN    1 Germinate        0   0.00   0.0    0  0.0  0.00  0.00  0.00  0.00     9
 20 JUN    5 Emergence       24   0.00   2.1    1  4.4  0.00  0.01  0.00  0.00     1
  5 JUL   20 End Juveni     152   0.31   8.4    5  3.4  0.10  0.01  0.00  0.00     2
 10 JUL   25 Floral Ini     298   0.54  10.2   11  3.8  0.28  0.00  0.00  0.00     3
 22 AUG   68 75% Silkin    7041   3.60  21.2  110  1.6  0.00  0.06  0.00  0.00     4
  5 SEP   82 Beg Gr Fil    9559   3.31  21.2  115  1.2  0.00  0.12  0.00  0.00     5
 28 OCT  135 End Gr Fil   14203   1.56  21.2  123  0.9  0.19  0.15  0.00  0.00     6
  1 NOV  139 Maturity     14203   1.56  21.2  123  0.9  0.98  0.38  0.00  0.00    10
  1 NOV  139 Harvest      14203   1.56  21.2  123  0.9  0.00  0.00  0.00  0.00    10


*MAIN GROWTH AND DEVELOPMENT VARIABLES

@     VARIABLE                                         SIMULATED     MEASURED
      --------                                         ---------     --------
      Anthesis day (dap)                                      68          -99
      Physiological maturity day (dap)                       139          -99
      Yield at harvest maturity (kg [dm]/ha)                4855          -99
      Number at maturity (no/m2)                             937          -99
      Unit wt at maturity (g [dm]/unit)                   0.5182          -99
      Number at maturity (no/unit)                         156.2          -99
      Tops weight at maturity (kg [dm]/ha)                 14203          -99
      By-product produced (stalk) at maturity (kg[dm]/ha    9413          -99
      Leaf area index, maximum                              3.64          -99
      Harvest index at maturity                            0.342          -99
      Grain N at maturity (kg/ha)                             76          -99
      Tops N at maturity (kg/ha)                             123          -99
      Stem N at maturity (kg/ha)                              48          -99
      Grain N at maturity (%)                                1.6          -99
      Tops weight at anthesis (kg [dm]/ha)                  6877          -99
      Tops N at anthesis (kg/ha)                             109          -99
      Leaf number per stem at maturity                     21.15          -99
      Emergence day (dap)                                      5          -99


*ENVIRONMENTAL AND STRESS FACTORS

 |-----Development Phase------|--------------------------------------Environment--------------------------------------|-----------------Stress-----------------|
                              |---------------Average--------------|-----Cumulative-----|--------Count of days--------|          (0=Min, 1=Max Stress)         |
                         Time  Temp  Temp  Temp Solar Photop                Evapo    Pot TMIN TMIN TMAX TMAX TMAX RAIN|----Water----|---Nitrogen--|-Phosphorus-|
                         Span   Max   Min  Mean   Rad  [day]    CO2   Rain  Trans     ET   <    <    >    >    >    >   Photo         Photo         Photo
                         days    øC    øC    øC MJ/m2     hr    ppm     mm     mm     mm  0øC  2øC 30øC 32øC 34øC  0mm  synth Growth  synth Growth  synth Growth
----------------------------------------------------------------------------------------------------------------------------------------------------------------
 Emergence-End Juvenile    15  28.2  15.7  21.9  19.4  12.49  380.0   21.9   20.3   74.6    0    0    3    0    0    5  0.049  0.100  0.004  0.009  0.000  0.000
 End Juvenil-Floral Init    5  27.2  15.7  21.4  19.9  12.47  380.0    0.0   12.9   24.7    0    0    0    0    0    0  0.021  0.197  0.001  0.002  0.000  0.000
 Floral Init-End Lf Grow   43  25.1  15.0  20.1  18.9  12.36  380.0  287.0  174.5  180.8    0    0    0    0    0   26  0.002  0.009  0.020  0.051  0.000  0.000
 End Lf Grth-Beg Grn Fil   14  25.0  15.0  20.0  20.2  12.18  380.0   63.3   60.9   61.3    0    0    0    0    0    4  0.000  0.000  0.054  0.134  0.000  0.000
 Grain Filling Phase       53  25.7  13.9  19.8  22.5  11.92  380.0  124.2  212.3  258.8    0    0    0    0    0   14  0.149  0.169  0.056  0.141  0.000  0.000
   
 Planting to Harvest      139  26.0  14.6  20.3  20.7  12.18  380.0  496.4  486.3  649.0    0    0    5    1    0   49  0.091  0.113  0.038  0.095  0.000  0.000
----------------------------------------------------------------------------------------------------------------------------------------------------------------


*Resource Productivity
 Growing season length: 139 days 

 Precipitation during growing season       496.4 mm[rain]
   Dry Matter Productivity                  2.86 kg[DM]/m3[rain]          =   28.6 kg[DM]/ha per mm[rain]
   Yield Productivity                       0.98 kg[grain yield]/m3[rain] =    9.8 kg[yield]/ha per mm[rain]

 Evapotranspiration during growing season  486.3 mm[ET]
   Dry Matter Productivity                  2.92 kg[DM]/m3[ET]            =   29.2 kg[DM]/ha per mm[ET]
   Yield Productivity                       1.00 kg[grain yield]/m3[ET]   =   10.0 kg[yield]/ha per mm[ET]

 Transpiration during growing season       384.6 mm[EP]
   Dry Matter Productivity                  3.69 kg[DM]/m3[EP]            =   36.9 kg[DM]/ha per mm[EP]
   Yield Productivity                       1.26 kg[grain yield]/m3[EP]   =   12.6 kg[yield]/ha per mm[EP]

 N applied during growing season             60. kg[N applied]/ha
   Dry Matter Productivity                 236.7 kg[DM]/kg[N applied]
   Yield Productivity                       80.9 kg[yield]/kg[N applied]

 N uptake during growing season              144 kg[N uptake]/ha
   Dry Matter Productivity                  98.6 kg[DM]/kg[N uptake]
   Yield Productivity                       33.7 kg[yield]/kg[N uptake]

--------------------------------------------------------------------------------------------------------------

                     Maize YIELD :     4855 kg/ha    [Dry weight] 

**************************************************************************************************************

*DSSAT Cropping System Model Ver. 4.7.5.008 -release  JAN 07, 2021 20:14:37

*RUN   2        : ERiMA DCC1                MZCER047 ETMZmelk    1
 MODEL          : MZCER047 - Maize
 EXPERIMENT     : ETMZmelk SN MELKSSAL
 DATA PATH      : C:\IRI\Python_Dash\ET_DSS_hist\TEST\
 TREATMENT  1   : ERiMA DCC1                MZCER047


 CROP           : Maize            CULTIVAR : BH540-Kassie     ECOTYPE :IB0001
 STARTING DATE  : JUN 14 1982
 PLANTING DATE  : JUN 15 1982        PLANTS/m2 :  6.0     ROW SPACING :  75.cm
 WEATHER        : MELK8201
 SOIL           : ETET001_18     TEXTURE : L     -   ET000_18
 SOIL INITIAL C : DEPTH:200cm EXTR. H2O:300.3mm  NO3: 39.6kg/ha  NH4:  2.4kg/ha
 WATER BALANCE  : RAINFED
 IRRIGATION     : NOT IRRIGATED
 NITROGEN BAL.  : SOIL-N & N-UPTAKE SIMULATION; NO N-FIXATION
 N-FERTILIZER   :       60 kg/ha IN     2 APPLICATIONS
 RESIDUE/MANURE : INITIAL :     0 kg/ha ;       0 kg/ha IN     0 APPLICATIONS
 ENVIRONM. OPT. : DAYL=    0.00  SRAD=    0.00  TMAX=    0.00  TMIN=    0.00
                  RAIN=    0.00  CO2 =    0.00  DEW =    0.00  WIND=    0.00
 SIMULATION OPT : WATER   :Y  NITROGEN:Y  N-FIX:N  PHOSPH :N  PESTS  :N
                  PHOTO   :C  ET      :R  INFIL:S  HYDROL :R  SOM    :G
                  CO2     :D  NSWIT   :1  EVAP :S  SOIL   :2  STEMP  :D
 MANAGEMENT OPT : PLANTING:R  IRRIG   :N  FERT :D  RESIDUE:N  HARVEST:M
                  WEATHER :M  TILLAGE :N

*SUMMARY OF SOIL AND GENETIC INPUT PARAMETERS

   SOIL LOWER UPPER   SAT  EXTR  INIT   ROOT   BULK     pH    NO3    NH4    ORG
  DEPTH LIMIT LIMIT    SW    SW    SW   DIST   DENS                          C
   cm   cm3/cm3    cm3/cm3    cm3/cm3         g/cm3         ugN/g  ugN/g     %
-------------------------------------------------------------------------------
  0-  5 0.166 0.260 0.433 0.094 0.231   1.00   1.20   7.90  15.00   0.10   1.50
  5- 15 0.166 0.260 0.433 0.094 0.231   1.00   1.20   7.90  15.00   0.10   1.50
 15- 20 0.166 0.260 0.433 0.094 0.231   1.00   1.20   7.90  15.00   0.10   1.50
 20- 35 0.121 0.264 0.434 0.143 0.221   0.58   1.20   8.00   2.00   0.10   1.48
 35- 50 0.121 0.316 0.466 0.195 0.316   0.10   1.10   8.30   0.00   0.10   1.46
 50- 65 0.121 0.316 0.466 0.195 0.316   0.10   1.10   8.30   0.00   0.10   1.46
 65- 81 0.134 0.304 0.477 0.170 0.304   0.00   1.00   8.50   0.00   0.10   1.40
 81- 97 0.134 0.304 0.477 0.170 0.304   0.00   1.00   8.50   0.00   0.10   1.40
 97-118 0.156 0.305 0.433 0.149 0.305   0.00   1.28   8.60   0.00   0.10   0.98
118-140 0.156 0.305 0.433 0.149 0.305   0.00   1.28   8.60   0.00   0.10   0.98
140-170 0.162 0.298 0.428 0.136 0.298   0.00   1.36   8.50   0.00   0.10   0.78
170-200 0.173 0.314 0.433 0.141 0.314   0.00   1.33   8.30   0.00   0.10   0.78

TOT-200  29.8  59.8  88.9  30.0  58.6  <--cm   -  kg/ha-->   39.6    2.4 272505
SOIL ALBEDO    : 0.13      EVAPORATION LIMIT : 6.00         MIN. FACTOR  : 1.00
RUNOFF CURVE # :81.00      DRAINAGE RATE     : 0.60         FERT. FACTOR : 0.70

 Maize      CULTIVAR :CIMT01-BH540-Kassie       ECOTYPE :IB0001
 P1     : 220.10  P2     : 0.8600  P5     : 840.10
 G2     : 266.20  G3     : 10.650  PHINT  : 38.900


*SIMULATED CROP AND SOIL STATUS AT MAIN DEVELOPMENT STAGES

 RUN NO.     2     ERiMA DCC1              

        CROP GROWTH     BIOMASS         LEAF   CROP N     STRESS      STRESS                                           
   DATE  AGE STAGE        kg/ha    LAI   NUM  kg/ha  %   H2O  Nitr Phos1 Phos2  RSTG                                   
 ------  --- ----------   -----  -----  ----  ---  ---  ----  ----  ----  ----  ----                                   
 14 JUN    0 Start Sim        0   0.00   0.0    0  0.0  0.00  0.00  0.00  0.00     7
 15 JUN    0 Sowing           0   0.00   0.0    0  0.0  0.00  0.00  0.00  0.00     8
 16 JUN    1 Germinate        0   0.00   0.0    0  0.0  0.00  0.00  0.00  0.00     9
 21 JUN    6 Emergence       24   0.00   2.1    1  4.4  0.00  0.01  0.00  0.00     1
  6 JUL   21 End Juveni     161   0.33   8.2    5  3.4  0.02  0.00  0.00  0.00     2
 11 JUL   26 Floral Ini     377   0.66  10.1   15  3.9  0.00  0.00  0.00  0.00     3
 24 AUG   70 75% Silkin    7000   3.66  21.2  114  1.6  0.06  0.03  0.00  0.00     4
  6 SEP   83 Beg Gr Fil    9629   3.51  21.2  119  1.2  0.00  0.06  0.00  0.00     5
 28 OCT  135 End Gr Fil   13751   1.26  21.2  123  0.9  0.39  0.10  0.00  0.00     6
  1 NOV  139 Maturity     13751   1.26  21.2  123  0.9  0.99  0.27  0.00  0.00    10
  1 NOV  139 Harvest      13751   1.26  21.2  123  0.9  0.00  0.00  0.00  0.00    10


*MAIN GROWTH AND DEVELOPMENT VARIABLES

@     VARIABLE                                         SIMULATED     MEASURED
      --------                                         ---------     --------
      Anthesis day (dap)                                      70          -99
      Physiological maturity day (dap)                       139          -99
      Yield at harvest maturity (kg [dm]/ha)                4490          -99
      Number at maturity (no/m2)                             998          -99
      Unit wt at maturity (g [dm]/unit)                   0.4497          -99
      Number at maturity (no/unit)                         166.4          -99
      Tops weight at maturity (kg [dm]/ha)                 13751          -99
      By-product produced (stalk) at maturity (kg[dm]/ha    9325          -99
      Leaf area index, maximum                              3.68          -99
      Harvest index at maturity                            0.326          -99
      Grain N at maturity (kg/ha)                             74          -99
      Tops N at maturity (kg/ha)                             123          -99
      Stem N at maturity (kg/ha)                              49          -99
      Grain N at maturity (%)                                1.6          -99
      Tops weight at anthesis (kg [dm]/ha)                  6823          -99
      Tops N at anthesis (kg/ha)                             114          -99
      Leaf number per stem at maturity                     21.18          -99
      Emergence day (dap)                                      6          -99


*ENVIRONMENTAL AND STRESS FACTORS

 |-----Development Phase------|--------------------------------------Environment--------------------------------------|-----------------Stress-----------------|
                              |---------------Average--------------|-----Cumulative-----|--------Count of days--------|          (0=Min, 1=Max Stress)         |
                         Time  Temp  Temp  Temp Solar Photop                Evapo    Pot TMIN TMIN TMAX TMAX TMAX RAIN|----Water----|---Nitrogen--|-Phosphorus-|
                         Span   Max   Min  Mean   Rad  [day]    CO2   Rain  Trans     ET   <    <    >    >    >    >   Photo         Photo         Photo
                         days    øC    øC    øC MJ/m2     hr    ppm     mm     mm     mm  0øC  2øC 30øC 32øC 34øC  0mm  synth Growth  synth Growth  synth Growth
----------------------------------------------------------------------------------------------------------------------------------------------------------------
 Emergence-End Juvenile    15  27.5  15.2  21.3  20.8  12.48  380.0   35.6   45.5   79.6    0    0    0    0    0    6  0.000  0.019  0.002  0.005  0.000  0.000
 End Juvenil-Floral Init    5  27.3  16.0  21.6  19.7  12.47  380.0    0.0   14.0   24.5    0    0    0    0    0    0  0.000  0.000  0.001  0.002  0.000  0.000
 Floral Init-End Lf Grow   44  24.7  15.2  20.0  18.2  12.36  380.0  226.0  154.8  177.5    0    0    1    0    0   22  0.034  0.063  0.012  0.029  0.000  0.000
 End Lf Grth-Beg Grn Fil   13  25.7  15.2  20.5  21.4  12.17  380.0   85.3   60.4   60.8    0    0    0    0    0    3  0.000  0.000  0.030  0.074  0.000  0.000
 Grain Filling Phase       52  26.6  13.6  20.1  23.6  11.92  380.0   85.7  176.8  269.6    0    0    0    0    0    6  0.342  0.376  0.039  0.098  0.000  0.000
   
 Planting to Harvest      139  26.0  14.6  20.3  21.0  12.18  380.0  437.7  457.8  662.8    0    0    2    0    0   38  0.167  0.191  0.024  0.061  0.000  0.000
----------------------------------------------------------------------------------------------------------------------------------------------------------------


*Resource Productivity
 Growing season length: 139 days 

 Precipitation during growing season       437.7 mm[rain]
   Dry Matter Productivity                  3.14 kg[DM]/m3[rain]          =   31.4 kg[DM]/ha per mm[rain]
   Yield Productivity                       1.03 kg[grain yield]/m3[rain] =   10.3 kg[yield]/ha per mm[rain]

 Evapotranspiration during growing season  457.8 mm[ET]
   Dry Matter Productivity                  3.00 kg[DM]/m3[ET]            =   30.0 kg[DM]/ha per mm[ET]
   Yield Productivity                       0.98 kg[grain yield]/m3[ET]   =    9.8 kg[yield]/ha per mm[ET]

 Transpiration during growing season       337.5 mm[EP]
   Dry Matter Productivity                  4.07 kg[DM]/m3[EP]            =   40.7 kg[DM]/ha per mm[EP]
   Yield Productivity                       1.33 kg[grain yield]/m3[EP]   =   13.3 kg[yield]/ha per mm[EP]

 N applied during growing season             60. kg[N applied]/ha
   Dry Matter Productivity                 229.2 kg[DM]/kg[N applied]
   Yield Productivity                       74.8 kg[yield]/kg[N applied]

 N uptake during growing season              140 kg[N uptake]/ha
   Dry Matter Productivity                  98.2 kg[DM]/kg[N uptake]
   Yield Productivity                       32.1 kg[yield]/kg[N uptake]

--------------------------------------------------------------------------------------------------------------

                     Maize YIELD :     4490 kg/ha    [Dry weight] 

**************************************************************************************************************

*DSSAT Cropping System Model Ver. 4.7.5.008 -release  JAN 07, 2021 20:14:37

*RUN   3        : ERiMA DCC1                MZCER047 ETMZmelk    1
 MODEL          : MZCER047 - Maize
 EXPERIMENT     : ETMZmelk SN MELKSSAL
 DATA PATH      : C:\IRI\Python_Dash\ET_DSS_hist\TEST\
 TREATMENT  1   : ERiMA DCC1                MZCER047


 CROP           : Maize            CULTIVAR : BH540-Kassie     ECOTYPE :IB0001
 STARTING DATE  : JUN 14 1983
 PLANTING DATE  : JUN 15 1983        PLANTS/m2 :  6.0     ROW SPACING :  75.cm
 WEATHER        : MELK8301
 SOIL           : ETET001_18     TEXTURE : L     -   ET000_18
 SOIL INITIAL C : DEPTH:200cm EXTR. H2O:300.3mm  NO3: 39.6kg/ha  NH4:  2.4kg/ha
 WATER BALANCE  : RAINFED
 IRRIGATION     : NOT IRRIGATED
 NITROGEN BAL.  : SOIL-N & N-UPTAKE SIMULATION; NO N-FIXATION
 N-FERTILIZER   :       60 kg/ha IN     2 APPLICATIONS
 RESIDUE/MANURE : INITIAL :     0 kg/ha ;       0 kg/ha IN     0 APPLICATIONS
 ENVIRONM. OPT. : DAYL=    0.00  SRAD=    0.00  TMAX=    0.00  TMIN=    0.00
                  RAIN=    0.00  CO2 =    0.00  DEW =    0.00  WIND=    0.00
 SIMULATION OPT : WATER   :Y  NITROGEN:Y  N-FIX:N  PHOSPH :N  PESTS  :N
                  PHOTO   :C  ET      :R  INFIL:S  HYDROL :R  SOM    :G
                  CO2     :D  NSWIT   :1  EVAP :S  SOIL   :2  STEMP  :D
 MANAGEMENT OPT : PLANTING:R  IRRIG   :N  FERT :D  RESIDUE:N  HARVEST:M
                  WEATHER :M  TILLAGE :N

*SUMMARY OF SOIL AND GENETIC INPUT PARAMETERS

   SOIL LOWER UPPER   SAT  EXTR  INIT   ROOT   BULK     pH    NO3    NH4    ORG
  DEPTH LIMIT LIMIT    SW    SW    SW   DIST   DENS                          C
   cm   cm3/cm3    cm3/cm3    cm3/cm3         g/cm3         ugN/g  ugN/g     %
-------------------------------------------------------------------------------
  0-  5 0.166 0.260 0.433 0.094 0.231   1.00   1.20   7.90  15.00   0.10   1.50
  5- 15 0.166 0.260 0.433 0.094 0.231   1.00   1.20   7.90  15.00   0.10   1.50
 15- 20 0.166 0.260 0.433 0.094 0.231   1.00   1.20   7.90  15.00   0.10   1.50
 20- 35 0.121 0.264 0.434 0.143 0.221   0.58   1.20   8.00   2.00   0.10   1.48
 35- 50 0.121 0.316 0.466 0.195 0.316   0.10   1.10   8.30   0.00   0.10   1.46
 50- 65 0.121 0.316 0.466 0.195 0.316   0.10   1.10   8.30   0.00   0.10   1.46
 65- 81 0.134 0.304 0.477 0.170 0.304   0.00   1.00   8.50   0.00   0.10   1.40
 81- 97 0.134 0.304 0.477 0.170 0.304   0.00   1.00   8.50   0.00   0.10   1.40
 97-118 0.156 0.305 0.433 0.149 0.305   0.00   1.28   8.60   0.00   0.10   0.98
118-140 0.156 0.305 0.433 0.149 0.305   0.00   1.28   8.60   0.00   0.10   0.98
140-170 0.162 0.298 0.428 0.136 0.298   0.00   1.36   8.50   0.00   0.10   0.78
170-200 0.173 0.314 0.433 0.141 0.314   0.00   1.33   8.30   0.00   0.10   0.78

TOT-200  29.8  59.8  88.9  30.0  58.6  <--cm   -  kg/ha-->   39.6    2.4 272505
SOIL ALBEDO    : 0.13      EVAPORATION LIMIT : 6.00         MIN. FACTOR  : 1.00
RUNOFF CURVE # :81.00      DRAINAGE RATE     : 0.60         FERT. FACTOR : 0.70

 Maize      CULTIVAR :CIMT01-BH540-Kassie       ECOTYPE :IB0001
 P1     : 220.10  P2     : 0.8600  P5     : 840.10
 G2     : 266.20  G3     : 10.650  PHINT  : 38.900


*SIMULATED CROP AND SOIL STATUS AT MAIN DEVELOPMENT STAGES

 RUN NO.     3     ERiMA DCC1              

        CROP GROWTH     BIOMASS         LEAF   CROP N     STRESS      STRESS                                           
   DATE  AGE STAGE        kg/ha    LAI   NUM  kg/ha  %   H2O  Nitr Phos1 Phos2  RSTG                                   
 ------  --- ----------   -----  -----  ----  ---  ---  ----  ----  ----  ----  ----                                   
 14 JUN    0 Start Sim        0   0.00   0.0    0  0.0  0.00  0.00  0.00  0.00     7
 15 JUN    0 Sowing           0   0.00   0.0    0  0.0  0.00  0.00  0.00  0.00     8
 16 JUN    1 Germinate        0   0.00   0.0    0  0.0  0.00  0.00  0.00  0.00     9
 21 JUN    6 Emergence       24   0.00   2.1    1  4.4  0.00  0.01  0.00  0.00     1
  5 JUL   20 End Juveni     163   0.33   8.1    5  3.4  0.00  0.00  0.00  0.00     2
 10 JUL   25 Floral Ini     399   0.69  10.2   15  3.9  0.00  0.00  0.00  0.00     3
 20 AUG   66 75% Silkin    7224   3.78  21.5  116  1.6  0.00  0.06  0.00  0.00     4
  2 SEP   79 Beg Gr Fil    9122   3.51  21.5  121  1.3  0.00  0.12  0.00  0.00     5
 25 OCT  132 End Gr Fil   13394   1.69  21.5  127  0.9  0.19  0.08  0.00  0.00     6
 29 OCT  136 Maturity     13394   1.69  21.5  127  0.9  0.96  0.24  0.00  0.00    10
 29 OCT  136 Harvest      13394   1.69  21.5  127  0.9  0.00  0.00  0.00  0.00    10


*MAIN GROWTH AND DEVELOPMENT VARIABLES

@     VARIABLE                                         SIMULATED     MEASURED
      --------                                         ---------     --------
      Anthesis day (dap)                                      66          -99
      Physiological maturity day (dap)                       136          -99
      Yield at harvest maturity (kg [dm]/ha)                4485          -99
      Number at maturity (no/m2)                             863          -99
      Unit wt at maturity (g [dm]/unit)                   0.5197          -99
      Number at maturity (no/unit)                         143.8          -99
      Tops weight at maturity (kg [dm]/ha)                 13394          -99
      By-product produced (stalk) at maturity (kg[dm]/ha    8976          -99
      Leaf area index, maximum                              3.86          -99
      Harvest index at maturity                            0.335          -99
      Grain N at maturity (kg/ha)                             73          -99
      Tops N at maturity (kg/ha)                             127          -99
      Stem N at maturity (kg/ha)                              54          -99
      Grain N at maturity (%)                                1.6          -99
      Tops weight at anthesis (kg [dm]/ha)                  7005          -99
      Tops N at anthesis (kg/ha)                             116          -99
      Leaf number per stem at maturity                     21.53          -99
      Emergence day (dap)                                      6          -99


*ENVIRONMENTAL AND STRESS FACTORS

 |-----Development Phase------|--------------------------------------Environment--------------------------------------|-----------------Stress-----------------|
                              |---------------Average--------------|-----Cumulative-----|--------Count of days--------|          (0=Min, 1=Max Stress)         |
                         Time  Temp  Temp  Temp Solar Photop                Evapo    Pot TMIN TMIN TMAX TMAX TMAX RAIN|----Water----|---Nitrogen--|-Phosphorus-|
                         Span   Max   Min  Mean   Rad  [day]    CO2   Rain  Trans     ET   <    <    >    >    >    >   Photo         Photo         Photo
                         days    øC    øC    øC MJ/m2     hr    ppm     mm     mm     mm  0øC  2øC 30øC 32øC 34øC  0mm  synth Growth  synth Growth  synth Growth
----------------------------------------------------------------------------------------------------------------------------------------------------------------
 Emergence-End Juvenile    14  28.6  15.2  21.9  21.2  12.49  380.0   29.0   36.2   76.7    0    0    4    0    0    2  0.000  0.000  0.002  0.005  0.000  0.000
 End Juvenil-Floral Init    5  29.7  15.5  22.6  22.6  12.47  380.0    7.2   14.6   28.7    0    0    3    0    0    1  0.000  0.000  0.001  0.001  0.000  0.000
 Floral Init-End Lf Grow   41  25.5  16.0  20.8  18.7  12.37  380.0  208.1  162.5  172.1    0    0    1    0    0   24  0.000  0.000  0.023  0.056  0.000  0.000
 End Lf Grth-Beg Grn Fil   13  25.2  16.2  20.7  17.6  12.20  380.0   98.6   49.8   50.0    0    0    0    0    0   11  0.000  0.000  0.053  0.132  0.000  0.000
 Grain Filling Phase       53  25.7  14.3  20.0  20.4  11.94  380.0  110.3  200.6  234.4    0    0    0    0    0   18  0.144  0.169  0.030  0.075  0.000  0.000
   
 Planting to Harvest      136  26.2  15.1  20.7  19.8  12.19  380.0  462.3  479.8  612.5    0    0   10    0    0   58  0.084  0.094  0.027  0.067  0.000  0.000
----------------------------------------------------------------------------------------------------------------------------------------------------------------


*Resource Productivity
 Growing season length: 136 days 

 Precipitation during growing season       462.3 mm[rain]
   Dry Matter Productivity                  2.90 kg[DM]/m3[rain]          =   29.0 kg[DM]/ha per mm[rain]
   Yield Productivity                       0.97 kg[grain yield]/m3[rain] =    9.7 kg[yield]/ha per mm[rain]

 Evapotranspiration during growing season  479.8 mm[ET]
   Dry Matter Productivity                  2.79 kg[DM]/m3[ET]            =   27.9 kg[DM]/ha per mm[ET]
   Yield Productivity                       0.93 kg[grain yield]/m3[ET]   =    9.3 kg[yield]/ha per mm[ET]

 Transpiration during growing season       362.1 mm[EP]
   Dry Matter Productivity                  3.70 kg[DM]/m3[EP]            =   37.0 kg[DM]/ha per mm[EP]
   Yield Productivity                       1.24 kg[grain yield]/m3[EP]   =   12.4 kg[yield]/ha per mm[EP]

 N applied during growing season             60. kg[N applied]/ha
   Dry Matter Productivity                 223.2 kg[DM]/kg[N applied]
   Yield Productivity                       74.8 kg[yield]/kg[N applied]

 N uptake during growing season              147 kg[N uptake]/ha
   Dry Matter Productivity                  91.1 kg[DM]/kg[N uptake]
   Yield Productivity                       30.5 kg[yield]/kg[N uptake]

--------------------------------------------------------------------------------------------------------------

                     Maize YIELD :     4485 kg/ha    [Dry weight] 

**************************************************************************************************************

*DSSAT Cropping System Model Ver. 4.7.5.008 -release  JAN 07, 2021 20:14:37

*RUN   4        : ERiMA DCC1                MZCER047 ETMZmelk    1
 MODEL          : MZCER047 - Maize
 EXPERIMENT     : ETMZmelk SN MELKSSAL
 DATA PATH      : C:\IRI\Python_Dash\ET_DSS_hist\TEST\
 TREATMENT  1   : ERiMA DCC1                MZCER047


 CROP           : Maize            CULTIVAR : BH540-Kassie     ECOTYPE :IB0001
 STARTING DATE  : JUN 13 1984
 PLANTING DATE  : JUN 14 1984        PLANTS/m2 :  6.0     ROW SPACING :  75.cm
 WEATHER        : MELK8401
 SOIL           : ETET001_18     TEXTURE : L     -   ET000_18
 SOIL INITIAL C : DEPTH:200cm EXTR. H2O:300.3mm  NO3: 39.6kg/ha  NH4:  2.4kg/ha
 WATER BALANCE  : RAINFED
 IRRIGATION     : NOT IRRIGATED
 NITROGEN BAL.  : SOIL-N & N-UPTAKE SIMULATION; NO N-FIXATION
 N-FERTILIZER   :       60 kg/ha IN     2 APPLICATIONS
 RESIDUE/MANURE : INITIAL :     0 kg/ha ;       0 kg/ha IN     0 APPLICATIONS
 ENVIRONM. OPT. : DAYL=    0.00  SRAD=    0.00  TMAX=    0.00  TMIN=    0.00
                  RAIN=    0.00  CO2 =    0.00  DEW =    0.00  WIND=    0.00
 SIMULATION OPT : WATER   :Y  NITROGEN:Y  N-FIX:N  PHOSPH :N  PESTS  :N
                  PHOTO   :C  ET      :R  INFIL:S  HYDROL :R  SOM    :G
                  CO2     :D  NSWIT   :1  EVAP :S  SOIL   :2  STEMP  :D
 MANAGEMENT OPT : PLANTING:R  IRRIG   :N  FERT :D  RESIDUE:N  HARVEST:M
                  WEATHER :M  TILLAGE :N

*SUMMARY OF SOIL AND GENETIC INPUT PARAMETERS

   SOIL LOWER UPPER   SAT  EXTR  INIT   ROOT   BULK     pH    NO3    NH4    ORG
  DEPTH LIMIT LIMIT    SW    SW    SW   DIST   DENS                          C
   cm   cm3/cm3    cm3/cm3    cm3/cm3         g/cm3         ugN/g  ugN/g     %
-------------------------------------------------------------------------------
  0-  5 0.166 0.260 0.433 0.094 0.231   1.00   1.20   7.90  15.00   0.10   1.50
  5- 15 0.166 0.260 0.433 0.094 0.231   1.00   1.20   7.90  15.00   0.10   1.50
 15- 20 0.166 0.260 0.433 0.094 0.231   1.00   1.20   7.90  15.00   0.10   1.50
 20- 35 0.121 0.264 0.434 0.143 0.221   0.58   1.20   8.00   2.00   0.10   1.48
 35- 50 0.121 0.316 0.466 0.195 0.316   0.10   1.10   8.30   0.00   0.10   1.46
 50- 65 0.121 0.316 0.466 0.195 0.316   0.10   1.10   8.30   0.00   0.10   1.46
 65- 81 0.134 0.304 0.477 0.170 0.304   0.00   1.00   8.50   0.00   0.10   1.40
 81- 97 0.134 0.304 0.477 0.170 0.304   0.00   1.00   8.50   0.00   0.10   1.40
 97-118 0.156 0.305 0.433 0.149 0.305   0.00   1.28   8.60   0.00   0.10   0.98
118-140 0.156 0.305 0.433 0.149 0.305   0.00   1.28   8.60   0.00   0.10   0.98
140-170 0.162 0.298 0.428 0.136 0.298   0.00   1.36   8.50   0.00   0.10   0.78
170-200 0.173 0.314 0.433 0.141 0.314   0.00   1.33   8.30   0.00   0.10   0.78

TOT-200  29.8  59.8  88.9  30.0  58.6  <--cm   -  kg/ha-->   39.6    2.4 272505
SOIL ALBEDO    : 0.13      EVAPORATION LIMIT : 6.00         MIN. FACTOR  : 1.00
RUNOFF CURVE # :81.00      DRAINAGE RATE     : 0.60         FERT. FACTOR : 0.70

 Maize      CULTIVAR :CIMT01-BH540-Kassie       ECOTYPE :IB0001
 P1     : 220.10  P2     : 0.8600  P5     : 840.10
 G2     : 266.20  G3     : 10.650  PHINT  : 38.900


*SIMULATED CROP AND SOIL STATUS AT MAIN DEVELOPMENT STAGES

 RUN NO.     4     ERiMA DCC1              

        CROP GROWTH     BIOMASS         LEAF   CROP N     STRESS      STRESS                                           
   DATE  AGE STAGE        kg/ha    LAI   NUM  kg/ha  %   H2O  Nitr Phos1 Phos2  RSTG                                   
 ------  --- ----------   -----  -----  ----  ---  ---  ----  ----  ----  ----  ----                                   
 13 JUN    0 Start Sim        0   0.00   0.0    0  0.0  0.00  0.00  0.00  0.00     7
 14 JUN    0 Sowing           0   0.00   0.0    0  0.0  0.00  0.00  0.00  0.00     8
 15 JUN    1 Germinate        0   0.00   0.0    0  0.0  0.00  0.00  0.00  0.00     9
 20 JUN    6 Emergence       24   0.00   2.0    1  4.4  0.00  0.01  0.00  0.00     1
  7 JUL   23 End Juveni     175   0.35   8.4    6  3.5  0.00  0.00  0.00  0.00     2
 12 JUL   28 Floral Ini     368   0.65  10.0   14  3.8  0.00  0.00  0.00  0.00     3
 24 AUG   71 75% Silkin    7351   3.69  21.2  111  1.5  0.00  0.07  0.00  0.00     4
  7 SEP   85 Beg Gr Fil    9870   3.28  21.2  115  1.2  0.00  0.17  0.00  0.00     5
  Crop mature on JD 294 due to slowed grain filling
 21 OCT  129 End Gr Fil   11994   0.85  21.2  117  1.0  0.63  0.07  0.00  0.00     6
 22 OCT  130 Maturity     11994   0.85  21.2  117  1.0  1.00  0.00  0.00  0.00    10
 22 OCT  130 Harvest      11994   0.85  21.2  117  1.0  0.00  0.00  0.00  0.00    10


*MAIN GROWTH AND DEVELOPMENT VARIABLES

@     VARIABLE                                         SIMULATED     MEASURED
      --------                                         ---------     --------
      Anthesis day (dap)                                      71          -99
      Physiological maturity day (dap)                       130          -99
      Yield at harvest maturity (kg [dm]/ha)                3076          -99
      Number at maturity (no/m2)                             956          -99
      Unit wt at maturity (g [dm]/unit)                   0.3218          -99
      Number at maturity (no/unit)                         159.3          -99
      Tops weight at maturity (kg [dm]/ha)                 11994          -99
      By-product produced (stalk) at maturity (kg[dm]/ha    8987          -99
      Leaf area index, maximum                              3.74          -99
      Harvest index at maturity                            0.256          -99
      Grain N at maturity (kg/ha)                             52          -99
      Tops N at maturity (kg/ha)                             117          -99
      Stem N at maturity (kg/ha)                              65          -99
      Grain N at maturity (%)                                1.7          -99
      Tops weight at anthesis (kg [dm]/ha)                  7127          -99
      Tops N at anthesis (kg/ha)                             110          -99
      Leaf number per stem at maturity                     21.18          -99
      Emergence day (dap)                                      6          -99


*ENVIRONMENTAL AND STRESS FACTORS

 |-----Development Phase------|--------------------------------------Environment--------------------------------------|-----------------Stress-----------------|
                              |---------------Average--------------|-----Cumulative-----|--------Count of days--------|          (0=Min, 1=Max Stress)         |
                         Time  Temp  Temp  Temp Solar Photop                Evapo    Pot TMIN TMIN TMAX TMAX TMAX RAIN|----Water----|---Nitrogen--|-Phosphorus-|
                         Span   Max   Min  Mean   Rad  [day]    CO2   Rain  Trans     ET   <    <    >    >    >    >   Photo         Photo         Photo
                         days    øC    øC    øC MJ/m2     hr    ppm     mm     mm     mm  0øC  2øC 30øC 32øC 34øC  0mm  synth Growth  synth Growth  synth Growth
----------------------------------------------------------------------------------------------------------------------------------------------------------------
 Emergence-End Juvenile    17  25.5  14.9  20.2  20.6  12.48  380.0   42.3   39.7   86.5    0    0    0    0    0    6  0.000  0.000  0.002  0.005  0.000  0.000
 End Juvenil-Floral Init    5  26.1  14.9  20.5  21.2  12.46  380.0    0.0   14.9   25.8    0    0    0    0    0    0  0.000  0.000  0.001  0.002  0.000  0.000
 Floral Init-End Lf Grow   43  24.9  15.1  20.0  20.9  12.35  380.0  198.7  183.5  198.5    0    0    0    0    0   20  0.000  0.000  0.026  0.066  0.000  0.000
 End Lf Grth-Beg Grn Fil   14  26.2  14.7  20.4  21.2  12.16  380.0   41.9   64.4   64.8    0    0    0    0    0    7  0.000  0.000  0.071  0.178  0.000  0.000
 Grain Filling Phase       44  26.0  13.8  19.9  23.1  11.93  380.0   52.4   97.1  223.7    0    0    0    0    0    7  0.574  0.603  0.027  0.068  0.000  0.000
   
 Planting to Harvest      130  25.6  14.6  20.1  21.6  12.21  380.0  335.3  404.7  634.5    0    0    0    0    0   40  0.202  0.212  0.026  0.065  0.000  0.000
----------------------------------------------------------------------------------------------------------------------------------------------------------------


*Resource Productivity
 Growing season length: 130 days 

 Precipitation during growing season       335.3 mm[rain]
   Dry Matter Productivity                  3.58 kg[DM]/m3[rain]          =   35.8 kg[DM]/ha per mm[rain]
   Yield Productivity                       0.92 kg[grain yield]/m3[rain] =    9.2 kg[yield]/ha per mm[rain]

 Evapotranspiration during growing season  404.7 mm[ET]
   Dry Matter Productivity                  2.96 kg[DM]/m3[ET]            =   29.6 kg[DM]/ha per mm[ET]
   Yield Productivity                       0.76 kg[grain yield]/m3[ET]   =    7.6 kg[yield]/ha per mm[ET]

 Transpiration during growing season       294.8 mm[EP]
   Dry Matter Productivity                  4.07 kg[DM]/m3[EP]            =   40.7 kg[DM]/ha per mm[EP]
   Yield Productivity                       1.04 kg[grain yield]/m3[EP]   =   10.4 kg[yield]/ha per mm[EP]

 N applied during growing season             60. kg[N applied]/ha
   Dry Matter Productivity                 199.9 kg[DM]/kg[N applied]
   Yield Productivity                       51.3 kg[yield]/kg[N applied]

 N uptake during growing season              134 kg[N uptake]/ha
   Dry Matter Productivity                  89.5 kg[DM]/kg[N uptake]
   Yield Productivity                       23.0 kg[yield]/kg[N uptake]

--------------------------------------------------------------------------------------------------------------

                     Maize YIELD :     3076 kg/ha    [Dry weight] 

**************************************************************************************************************

*DSSAT Cropping System Model Ver. 4.7.5.008 -release  JAN 07, 2021 20:14:37

*RUN   5        : ERiMA DCC1                MZCER047 ETMZmelk    1
 MODEL          : MZCER047 - Maize
 EXPERIMENT     : ETMZmelk SN MELKSSAL
 DATA PATH      : C:\IRI\Python_Dash\ET_DSS_hist\TEST\
 TREATMENT  1   : ERiMA DCC1                MZCER047


 CROP           : Maize            CULTIVAR : BH540-Kassie     ECOTYPE :IB0001
 STARTING DATE  : JUN 14 1985
 PLANTING DATE  : JUN 15 1985        PLANTS/m2 :  6.0     ROW SPACING :  75.cm
 WEATHER        : MELK8501
 SOIL           : ETET001_18     TEXTURE : L     -   ET000_18
 SOIL INITIAL C : DEPTH:200cm EXTR. H2O:300.3mm  NO3: 39.6kg/ha  NH4:  2.4kg/ha
 WATER BALANCE  : RAINFED
 IRRIGATION     : NOT IRRIGATED
 NITROGEN BAL.  : SOIL-N & N-UPTAKE SIMULATION; NO N-FIXATION
 N-FERTILIZER   :       60 kg/ha IN     2 APPLICATIONS
 RESIDUE/MANURE : INITIAL :     0 kg/ha ;       0 kg/ha IN     0 APPLICATIONS
 ENVIRONM. OPT. : DAYL=    0.00  SRAD=    0.00  TMAX=    0.00  TMIN=    0.00
                  RAIN=    0.00  CO2 =    0.00  DEW =    0.00  WIND=    0.00
 SIMULATION OPT : WATER   :Y  NITROGEN:Y  N-FIX:N  PHOSPH :N  PESTS  :N
                  PHOTO   :C  ET      :R  INFIL:S  HYDROL :R  SOM    :G
                  CO2     :D  NSWIT   :1  EVAP :S  SOIL   :2  STEMP  :D
 MANAGEMENT OPT : PLANTING:R  IRRIG   :N  FERT :D  RESIDUE:N  HARVEST:M
                  WEATHER :M  TILLAGE :N

*SUMMARY OF SOIL AND GENETIC INPUT PARAMETERS

   SOIL LOWER UPPER   SAT  EXTR  INIT   ROOT   BULK     pH    NO3    NH4    ORG
  DEPTH LIMIT LIMIT    SW    SW    SW   DIST   DENS                          C
   cm   cm3/cm3    cm3/cm3    cm3/cm3         g/cm3         ugN/g  ugN/g     %
-------------------------------------------------------------------------------
  0-  5 0.166 0.260 0.433 0.094 0.231   1.00   1.20   7.90  15.00   0.10   1.50
  5- 15 0.166 0.260 0.433 0.094 0.231   1.00   1.20   7.90  15.00   0.10   1.50
 15- 20 0.166 0.260 0.433 0.094 0.231   1.00   1.20   7.90  15.00   0.10   1.50
 20- 35 0.121 0.264 0.434 0.143 0.221   0.58   1.20   8.00   2.00   0.10   1.48
 35- 50 0.121 0.316 0.466 0.195 0.316   0.10   1.10   8.30   0.00   0.10   1.46
 50- 65 0.121 0.316 0.466 0.195 0.316   0.10   1.10   8.30   0.00   0.10   1.46
 65- 81 0.134 0.304 0.477 0.170 0.304   0.00   1.00   8.50   0.00   0.10   1.40
 81- 97 0.134 0.304 0.477 0.170 0.304   0.00   1.00   8.50   0.00   0.10   1.40
 97-118 0.156 0.305 0.433 0.149 0.305   0.00   1.28   8.60   0.00   0.10   0.98
118-140 0.156 0.305 0.433 0.149 0.305   0.00   1.28   8.60   0.00   0.10   0.98
140-170 0.162 0.298 0.428 0.136 0.298   0.00   1.36   8.50   0.00   0.10   0.78
170-200 0.173 0.314 0.433 0.141 0.314   0.00   1.33   8.30   0.00   0.10   0.78

TOT-200  29.8  59.8  88.9  30.0  58.6  <--cm   -  kg/ha-->   39.6    2.4 272505
SOIL ALBEDO    : 0.13      EVAPORATION LIMIT : 6.00         MIN. FACTOR  : 1.00
RUNOFF CURVE # :81.00      DRAINAGE RATE     : 0.60         FERT. FACTOR : 0.70

 Maize      CULTIVAR :CIMT01-BH540-Kassie       ECOTYPE :IB0001
 P1     : 220.10  P2     : 0.8600  P5     : 840.10
 G2     : 266.20  G3     : 10.650  PHINT  : 38.900


*SIMULATED CROP AND SOIL STATUS AT MAIN DEVELOPMENT STAGES

 RUN NO.     5     ERiMA DCC1              

        CROP GROWTH     BIOMASS         LEAF   CROP N     STRESS      STRESS                                           
   DATE  AGE STAGE        kg/ha    LAI   NUM  kg/ha  %   H2O  Nitr Phos1 Phos2  RSTG                                   
 ------  --- ----------   -----  -----  ----  ---  ---  ----  ----  ----  ----  ----                                   
 14 JUN    0 Start Sim        0   0.00   0.0    0  0.0  0.00  0.00  0.00  0.00     7
 15 JUN    0 Sowing           0   0.00   0.0    0  0.0  0.00  0.00  0.00  0.00     8
 16 JUN    1 Germinate        0   0.00   0.0    0  0.0  0.00  0.00  0.00  0.00     9
 21 JUN    6 Emergence       24   0.00   2.0    1  4.4  0.00  0.01  0.00  0.00     1
  8 JUL   23 End Juveni     162   0.33   8.2    6  3.6  0.00  0.00  0.00  0.00     2
 13 JUL   28 Floral Ini     333   0.60   9.8   13  3.8  0.00  0.00  0.00  0.00     3
 27 AUG   73 75% Silkin    6600   3.11  20.6   90  1.4  0.00  0.12  0.00  0.00     4
 11 SEP   88 Beg Gr Fil    8777   2.48  20.6   96  1.1  0.00  0.30  0.00  0.00     5
  3 NOV  141 End Gr Fil   11701   0.61  20.6  102  0.9  0.45  0.23  0.00  0.00     6
  7 NOV  145 Maturity     11701   0.61  20.6  102  0.9  1.00  0.19  0.00  0.00    10
  7 NOV  145 Harvest      11701   0.61  20.6  102  0.9  0.00  0.00  0.00  0.00    10


*MAIN GROWTH AND DEVELOPMENT VARIABLES

@     VARIABLE                                         SIMULATED     MEASURED
      --------                                         ---------     --------
      Anthesis day (dap)                                      73          -99
      Physiological maturity day (dap)                       145          -99
      Yield at harvest maturity (kg [dm]/ha)                3606          -99
      Number at maturity (no/m2)                             822          -99
      Unit wt at maturity (g [dm]/unit)                   0.4385          -99
      Number at maturity (no/unit)                         137.1          -99
      Tops weight at maturity (kg [dm]/ha)                 11701          -99
      By-product produced (stalk) at maturity (kg[dm]/ha    8160          -99
      Leaf area index, maximum                              3.37          -99
      Harvest index at maturity                            0.308          -99
      Grain N at maturity (kg/ha)                             52          -99
      Tops N at maturity (kg/ha)                             102          -99
      Stem N at maturity (kg/ha)                              49          -99
      Grain N at maturity (%)                                1.4          -99
      Tops weight at anthesis (kg [dm]/ha)                  6426          -99
      Tops N at anthesis (kg/ha)                              90          -99
      Leaf number per stem at maturity                     20.59          -99
      Emergence day (dap)                                      6          -99


*ENVIRONMENTAL AND STRESS FACTORS

 |-----Development Phase------|--------------------------------------Environment--------------------------------------|-----------------Stress-----------------|
                              |---------------Average--------------|-----Cumulative-----|--------Count of days--------|          (0=Min, 1=Max Stress)         |
                         Time  Temp  Temp  Temp Solar Photop                Evapo    Pot TMIN TMIN TMAX TMAX TMAX RAIN|----Water----|---Nitrogen--|-Phosphorus-|
                         Span   Max   Min  Mean   Rad  [day]    CO2   Rain  Trans     ET   <    <    >    >    >    >   Photo         Photo         Photo
                         days    øC    øC    øC MJ/m2     hr    ppm     mm     mm     mm  0øC  2øC 30øC 32øC 34øC  0mm  synth Growth  synth Growth  synth Growth
----------------------------------------------------------------------------------------------------------------------------------------------------------------
 Emergence-End Juvenile    17  25.6  14.2  19.9  20.2  12.48  380.0   73.5   50.6   84.8    0    0    0    0    0    5  0.000  0.000  0.002  0.006  0.000  0.000
 End Juvenil-Floral Init    5  24.4  14.3  19.4  19.5  12.46  380.0   46.6   23.4   23.4    0    0    0    0    0    3  0.000  0.000  0.000  0.001  0.000  0.000
 Floral Init-End Lf Grow   45  24.3  14.3  19.3  19.5  12.34  380.0  368.6  191.6  192.5    0    0    0    0    0   24  0.000  0.000  0.045  0.113  0.000  0.000
 End Lf Grth-Beg Grn Fil   15  24.8  13.8  19.3  19.8  12.14  380.0   70.0   63.8   64.1    0    0    0    0    0    5  0.000  0.000  0.122  0.304  0.000  0.000
 Grain Filling Phase       53  26.4  13.3  19.8  22.5  11.88  380.0   44.5  147.5  265.5    0    0    0    0    0    5  0.407  0.429  0.093  0.233  0.000  0.000
   
 Planting to Harvest      145  25.5  13.8  19.6  20.8  12.16  380.0  603.2  488.2  680.0    0    0    1    0    0   42  0.176  0.184  0.063  0.158  0.000  0.000
----------------------------------------------------------------------------------------------------------------------------------------------------------------


*Resource Productivity
 Growing season length: 145 days 

 Precipitation during growing season       603.2 mm[rain]
   Dry Matter Productivity                  1.94 kg[DM]/m3[rain]          =   19.4 kg[DM]/ha per mm[rain]
   Yield Productivity                       0.60 kg[grain yield]/m3[rain] =    6.0 kg[yield]/ha per mm[rain]

 Evapotranspiration during growing season  488.2 mm[ET]
   Dry Matter Productivity                  2.40 kg[DM]/m3[ET]            =   24.0 kg[DM]/ha per mm[ET]
   Yield Productivity                       0.74 kg[grain yield]/m3[ET]   =    7.4 kg[yield]/ha per mm[ET]

 Transpiration during growing season       319.6 mm[EP]
   Dry Matter Productivity                  3.66 kg[DM]/m3[EP]            =   36.6 kg[DM]/ha per mm[EP]
   Yield Productivity                       1.13 kg[grain yield]/m3[EP]   =   11.3 kg[yield]/ha per mm[EP]

 N applied during growing season             60. kg[N applied]/ha
   Dry Matter Productivity                 195.0 kg[DM]/kg[N applied]
   Yield Productivity                       60.1 kg[yield]/kg[N applied]

 N uptake during growing season              119 kg[N uptake]/ha
   Dry Matter Productivity                  98.3 kg[DM]/kg[N uptake]
   Yield Productivity                       30.3 kg[yield]/kg[N uptake]

--------------------------------------------------------------------------------------------------------------

                     Maize YIELD :     3606 kg/ha    [Dry weight] 

**************************************************************************************************************

*DSSAT Cropping System Model Ver. 4.7.5.008 -release  JAN 07, 2021 20:14:37

*RUN   6        : ERiMA DCC1                MZCER047 ETMZmelk    1
 MODEL          : MZCER047 - Maize
 EXPERIMENT     : ETMZmelk SN MELKSSAL
 DATA PATH      : C:\IRI\Python_Dash\ET_DSS_hist\TEST\
 TREATMENT  1   : ERiMA DCC1                MZCER047


 CROP           : Maize            CULTIVAR : BH540-Kassie     ECOTYPE :IB0001
 STARTING DATE  : JUN 14 1986
 PLANTING DATE  : JUN 15 1986        PLANTS/m2 :  6.0     ROW SPACING :  75.cm
 WEATHER        : MELK8601
 SOIL           : ETET001_18     TEXTURE : L     -   ET000_18
 SOIL INITIAL C : DEPTH:200cm EXTR. H2O:300.3mm  NO3: 39.6kg/ha  NH4:  2.4kg/ha
 WATER BALANCE  : RAINFED
 IRRIGATION     : NOT IRRIGATED
 NITROGEN BAL.  : SOIL-N & N-UPTAKE SIMULATION; NO N-FIXATION
 N-FERTILIZER   :       60 kg/ha IN     2 APPLICATIONS
 RESIDUE/MANURE : INITIAL :     0 kg/ha ;       0 kg/ha IN     0 APPLICATIONS
 ENVIRONM. OPT. : DAYL=    0.00  SRAD=    0.00  TMAX=    0.00  TMIN=    0.00
                  RAIN=    0.00  CO2 =    0.00  DEW =    0.00  WIND=    0.00
 SIMULATION OPT : WATER   :Y  NITROGEN:Y  N-FIX:N  PHOSPH :N  PESTS  :N
                  PHOTO   :C  ET      :R  INFIL:S  HYDROL :R  SOM    :G
                  CO2     :D  NSWIT   :1  EVAP :S  SOIL   :2  STEMP  :D
 MANAGEMENT OPT : PLANTING:R  IRRIG   :N  FERT :D  RESIDUE:N  HARVEST:M
                  WEATHER :M  TILLAGE :N

*SUMMARY OF SOIL AND GENETIC INPUT PARAMETERS

   SOIL LOWER UPPER   SAT  EXTR  INIT   ROOT   BULK     pH    NO3    NH4    ORG
  DEPTH LIMIT LIMIT    SW    SW    SW   DIST   DENS                          C
   cm   cm3/cm3    cm3/cm3    cm3/cm3         g/cm3         ugN/g  ugN/g     %
-------------------------------------------------------------------------------
  0-  5 0.166 0.260 0.433 0.094 0.231   1.00   1.20   7.90  15.00   0.10   1.50
  5- 15 0.166 0.260 0.433 0.094 0.231   1.00   1.20   7.90  15.00   0.10   1.50
 15- 20 0.166 0.260 0.433 0.094 0.231   1.00   1.20   7.90  15.00   0.10   1.50
 20- 35 0.121 0.264 0.434 0.143 0.221   0.58   1.20   8.00   2.00   0.10   1.48
 35- 50 0.121 0.316 0.466 0.195 0.316   0.10   1.10   8.30   0.00   0.10   1.46
 50- 65 0.121 0.316 0.466 0.195 0.316   0.10   1.10   8.30   0.00   0.10   1.46
 65- 81 0.134 0.304 0.477 0.170 0.304   0.00   1.00   8.50   0.00   0.10   1.40
 81- 97 0.134 0.304 0.477 0.170 0.304   0.00   1.00   8.50   0.00   0.10   1.40
 97-118 0.156 0.305 0.433 0.149 0.305   0.00   1.28   8.60   0.00   0.10   0.98
118-140 0.156 0.305 0.433 0.149 0.305   0.00   1.28   8.60   0.00   0.10   0.98
140-170 0.162 0.298 0.428 0.136 0.298   0.00   1.36   8.50   0.00   0.10   0.78
170-200 0.173 0.314 0.433 0.141 0.314   0.00   1.33   8.30   0.00   0.10   0.78

TOT-200  29.8  59.8  88.9  30.0  58.6  <--cm   -  kg/ha-->   39.6    2.4 272505
SOIL ALBEDO    : 0.13      EVAPORATION LIMIT : 6.00         MIN. FACTOR  : 1.00
RUNOFF CURVE # :81.00      DRAINAGE RATE     : 0.60         FERT. FACTOR : 0.70

 Maize      CULTIVAR :CIMT01-BH540-Kassie       ECOTYPE :IB0001
 P1     : 220.10  P2     : 0.8600  P5     : 840.10
 G2     : 266.20  G3     : 10.650  PHINT  : 38.900


*SIMULATED CROP AND SOIL STATUS AT MAIN DEVELOPMENT STAGES

 RUN NO.     6     ERiMA DCC1              

        CROP GROWTH     BIOMASS         LEAF   CROP N     STRESS      STRESS                                           
   DATE  AGE STAGE        kg/ha    LAI   NUM  kg/ha  %   H2O  Nitr Phos1 Phos2  RSTG                                   
 ------  --- ----------   -----  -----  ----  ---  ---  ----  ----  ----  ----  ----                                   
 14 JUN    0 Start Sim        0   0.00   0.0    0  0.0  0.00  0.00  0.00  0.00     7
 15 JUN    0 Sowing           0   0.00   0.0    0  0.0  0.00  0.00  0.00  0.00     8
 16 JUN    1 Germinate        0   0.00   0.0    0  0.0  0.00  0.00  0.00  0.00     9
 21 JUN    6 Emergence       24   0.00   2.0    1  4.4  0.00  0.01  0.00  0.00     1
  7 JUL   22 End Juveni     156   0.32   8.1    6  3.5  0.00  0.00  0.00  0.00     2
 12 JUL   27 Floral Ini     342   0.61   9.8   13  3.8  0.00  0.00  0.00  0.00     3
 24 AUG   70 75% Silkin    6981   3.66  20.5  111  1.6  0.00  0.05  0.00  0.00     4
  7 SEP   84 Beg Gr Fil    9573   3.43  20.5  117  1.2  0.00  0.09  0.00  0.00     5
  Crop mature on JD 291 due to slowed grain filling
 19 OCT  126 End Gr Fil   12021   1.19  20.5  119  1.0  0.55  0.03  0.00  0.00     6
 20 OCT  127 Maturity     12021   1.19  20.5  119  1.0  1.00  0.00  0.00  0.00    10
 20 OCT  127 Harvest      12021   1.19  20.5  119  1.0  0.00  0.00  0.00  0.00    10


*MAIN GROWTH AND DEVELOPMENT VARIABLES

@     VARIABLE                                         SIMULATED     MEASURED
      --------                                         ---------     --------
      Anthesis day (dap)                                      70          -99
      Physiological maturity day (dap)                       127          -99
      Yield at harvest maturity (kg [dm]/ha)                3139          -99
      Number at maturity (no/m2)                             955          -99
      Unit wt at maturity (g [dm]/unit)                   0.3288          -99
      Number at maturity (no/unit)                         159.1          -99
      Tops weight at maturity (kg [dm]/ha)                 12021          -99
      By-product produced (stalk) at maturity (kg[dm]/ha    8946          -99
      Leaf area index, maximum                              3.69          -99
      Harvest index at maturity                            0.261          -99
      Grain N at maturity (kg/ha)                             55          -99
      Tops N at maturity (kg/ha)                             119          -99
      Stem N at maturity (kg/ha)                              64          -99
      Grain N at maturity (%)                                1.7          -99
      Tops weight at anthesis (kg [dm]/ha)                  6794          -99
      Tops N at anthesis (kg/ha)                             110          -99
      Leaf number per stem at maturity                     20.47          -99
      Emergence day (dap)                                      6          -99


*ENVIRONMENTAL AND STRESS FACTORS

 |-----Development Phase------|--------------------------------------Environment--------------------------------------|-----------------Stress-----------------|
                              |---------------Average--------------|-----Cumulative-----|--------Count of days--------|          (0=Min, 1=Max Stress)         |
                         Time  Temp  Temp  Temp Solar Photop                Evapo    Pot TMIN TMIN TMAX TMAX TMAX RAIN|----Water----|---Nitrogen--|-Phosphorus-|
                         Span   Max   Min  Mean   Rad  [day]    CO2   Rain  Trans     ET   <    <    >    >    >    >   Photo         Photo         Photo
                         days    øC    øC    øC MJ/m2     hr    ppm     mm     mm     mm  0øC  2øC 30øC 32øC 34øC  0mm  synth Growth  synth Growth  synth Growth
----------------------------------------------------------------------------------------------------------------------------------------------------------------
 Emergence-End Juvenile    16  25.8  15.5  20.6  17.5  12.48  380.0   57.8   55.2   70.7    0    0    0    0    0    5  0.000  0.000  0.002  0.006  0.000  0.000
 End Juvenil-Floral Init    5  26.2  14.5  20.4  20.9  12.46  380.0    9.4   13.6   25.3    0    0    0    0    0    1  0.000  0.000  0.000  0.000  0.000  0.000
 Floral Init-End Lf Grow   43  25.2  14.4  19.8  18.6  12.35  380.0  202.9  174.0  177.7    0    0    0    0    0   19  0.000  0.000  0.018  0.045  0.000  0.000
 End Lf Grth-Beg Grn Fil   14  26.3  13.3  19.8  20.4  12.17  380.0    5.1   61.3   61.7    0    0    0    0    0    2  0.000  0.000  0.042  0.104  0.000  0.000
 Grain Filling Phase       42  25.8  13.7  19.8  21.6  11.95  380.0   79.7  104.8  197.2    0    0    0    0    0    4  0.485  0.523  0.013  0.033  0.000  0.000
   
 Planting to Harvest      127  25.7  14.2  20.0  19.7  12.22  380.0  373.8  437.1  565.4    0    0    0    0    0   34  0.168  0.181  0.015  0.038  0.000  0.000
----------------------------------------------------------------------------------------------------------------------------------------------------------------


*Resource Productivity
 Growing season length: 127 days 

 Precipitation during growing season       373.8 mm[rain]
   Dry Matter Productivity                  3.22 kg[DM]/m3[rain]          =   32.2 kg[DM]/ha per mm[rain]
   Yield Productivity                       0.84 kg[grain yield]/m3[rain] =    8.4 kg[yield]/ha per mm[rain]

 Evapotranspiration during growing season  437.1 mm[ET]
   Dry Matter Productivity                  2.75 kg[DM]/m3[ET]            =   27.5 kg[DM]/ha per mm[ET]
   Yield Productivity                       0.72 kg[grain yield]/m3[ET]   =    7.2 kg[yield]/ha per mm[ET]

 Transpiration during growing season       280.9 mm[EP]
   Dry Matter Productivity                  4.28 kg[DM]/m3[EP]            =   42.8 kg[DM]/ha per mm[EP]
   Yield Productivity                       1.12 kg[grain yield]/m3[EP]   =   11.2 kg[yield]/ha per mm[EP]

 N applied during growing season             60. kg[N applied]/ha
   Dry Matter Productivity                 200.4 kg[DM]/kg[N applied]
   Yield Productivity                       52.3 kg[yield]/kg[N applied]

 N uptake during growing season              133 kg[N uptake]/ha
   Dry Matter Productivity                  90.4 kg[DM]/kg[N uptake]
   Yield Productivity                       23.6 kg[yield]/kg[N uptake]

--------------------------------------------------------------------------------------------------------------

                     Maize YIELD :     3139 kg/ha    [Dry weight] 

**************************************************************************************************************

*DSSAT Cropping System Model Ver. 4.7.5.008 -release  JAN 07, 2021 20:14:37

*RUN   7        : ERiMA DCC1                MZCER047 ETMZmelk    1
 MODEL          : MZCER047 - Maize
 EXPERIMENT     : ETMZmelk SN MELKSSAL
 DATA PATH      : C:\IRI\Python_Dash\ET_DSS_hist\TEST\
 TREATMENT  1   : ERiMA DCC1                MZCER047


 CROP           : Maize            CULTIVAR : BH540-Kassie     ECOTYPE :IB0001
 STARTING DATE  : JUN 14 1987
 PLANTING DATE  : JUN 15 1987        PLANTS/m2 :  6.0     ROW SPACING :  75.cm
 WEATHER        : MELK8701
 SOIL           : ETET001_18     TEXTURE : L     -   ET000_18
 SOIL INITIAL C : DEPTH:200cm EXTR. H2O:300.3mm  NO3: 39.6kg/ha  NH4:  2.4kg/ha
 WATER BALANCE  : RAINFED
 IRRIGATION     : NOT IRRIGATED
 NITROGEN BAL.  : SOIL-N & N-UPTAKE SIMULATION; NO N-FIXATION
 N-FERTILIZER   :       60 kg/ha IN     2 APPLICATIONS
 RESIDUE/MANURE : INITIAL :     0 kg/ha ;       0 kg/ha IN     0 APPLICATIONS
 ENVIRONM. OPT. : DAYL=    0.00  SRAD=    0.00  TMAX=    0.00  TMIN=    0.00
                  RAIN=    0.00  CO2 =    0.00  DEW =    0.00  WIND=    0.00
 SIMULATION OPT : WATER   :Y  NITROGEN:Y  N-FIX:N  PHOSPH :N  PESTS  :N
                  PHOTO   :C  ET      :R  INFIL:S  HYDROL :R  SOM    :G
                  CO2     :D  NSWIT   :1  EVAP :S  SOIL   :2  STEMP  :D
 MANAGEMENT OPT : PLANTING:R  IRRIG   :N  FERT :D  RESIDUE:N  HARVEST:M
                  WEATHER :M  TILLAGE :N

*SUMMARY OF SOIL AND GENETIC INPUT PARAMETERS

   SOIL LOWER UPPER   SAT  EXTR  INIT   ROOT   BULK     pH    NO3    NH4    ORG
  DEPTH LIMIT LIMIT    SW    SW    SW   DIST   DENS                          C
   cm   cm3/cm3    cm3/cm3    cm3/cm3         g/cm3         ugN/g  ugN/g     %
-------------------------------------------------------------------------------
  0-  5 0.166 0.260 0.433 0.094 0.231   1.00   1.20   7.90  15.00   0.10   1.50
  5- 15 0.166 0.260 0.433 0.094 0.231   1.00   1.20   7.90  15.00   0.10   1.50
 15- 20 0.166 0.260 0.433 0.094 0.231   1.00   1.20   7.90  15.00   0.10   1.50
 20- 35 0.121 0.264 0.434 0.143 0.221   0.58   1.20   8.00   2.00   0.10   1.48
 35- 50 0.121 0.316 0.466 0.195 0.316   0.10   1.10   8.30   0.00   0.10   1.46
 50- 65 0.121 0.316 0.466 0.195 0.316   0.10   1.10   8.30   0.00   0.10   1.46
 65- 81 0.134 0.304 0.477 0.170 0.304   0.00   1.00   8.50   0.00   0.10   1.40
 81- 97 0.134 0.304 0.477 0.170 0.304   0.00   1.00   8.50   0.00   0.10   1.40
 97-118 0.156 0.305 0.433 0.149 0.305   0.00   1.28   8.60   0.00   0.10   0.98
118-140 0.156 0.305 0.433 0.149 0.305   0.00   1.28   8.60   0.00   0.10   0.98
140-170 0.162 0.298 0.428 0.136 0.298   0.00   1.36   8.50   0.00   0.10   0.78
170-200 0.173 0.314 0.433 0.141 0.314   0.00   1.33   8.30   0.00   0.10   0.78

TOT-200  29.8  59.8  88.9  30.0  58.6  <--cm   -  kg/ha-->   39.6    2.4 272505
SOIL ALBEDO    : 0.13      EVAPORATION LIMIT : 6.00         MIN. FACTOR  : 1.00
RUNOFF CURVE # :81.00      DRAINAGE RATE     : 0.60         FERT. FACTOR : 0.70

 Maize      CULTIVAR :CIMT01-BH540-Kassie       ECOTYPE :IB0001
 P1     : 220.10  P2     : 0.8600  P5     : 840.10
 G2     : 266.20  G3     : 10.650  PHINT  : 38.900


*SIMULATED CROP AND SOIL STATUS AT MAIN DEVELOPMENT STAGES

 RUN NO.     7     ERiMA DCC1              

        CROP GROWTH     BIOMASS         LEAF   CROP N     STRESS      STRESS                                           
   DATE  AGE STAGE        kg/ha    LAI   NUM  kg/ha  %   H2O  Nitr Phos1 Phos2  RSTG                                   
 ------  --- ----------   -----  -----  ----  ---  ---  ----  ----  ----  ----  ----                                   
 14 JUN    0 Start Sim        0   0.00   0.0    0  0.0  0.00  0.00  0.00  0.00     7
 15 JUN    0 Sowing           0   0.00   0.0    0  0.0  0.00  0.00  0.00  0.00     8
 16 JUN    1 Germinate        0   0.00   0.0    0  0.0  0.00  0.00  0.00  0.00     9
 21 JUN    6 Emergence       24   0.00   2.1    1  4.4  0.00  0.01  0.00  0.00     1
  6 JUL   21 End Juveni      88   0.18   8.3    3  3.6  0.33  0.00  0.00  0.00     2
 11 JUL   26 Floral Ini     246   0.46  10.2   10  4.0  0.10  0.00  0.00  0.00     3
 19 AUG   65 75% Silkin    6137   3.25  21.3  112  1.8  0.14  0.03  0.00  0.00     4
  1 SEP   78 Beg Gr Fil    8347   3.24  21.3  115  1.4  0.00  0.00  0.00  0.00     5
  Crop mature on JD 290 due to slowed grain filling
 18 OCT  125 End Gr Fil   10912   0.90  21.3  110  1.0  0.58  0.00  0.00  0.00     6
 19 OCT  126 Maturity     10912   0.90  21.3  110  1.0  1.00  0.00  0.00  0.00    10
 19 OCT  126 Harvest      10912   0.90  21.3  110  1.0  0.00  0.00  0.00  0.00    10


*MAIN GROWTH AND DEVELOPMENT VARIABLES

@     VARIABLE                                         SIMULATED     MEASURED
      --------                                         ---------     --------
      Anthesis day (dap)                                      65          -99
      Physiological maturity day (dap)                       126          -99
      Yield at harvest maturity (kg [dm]/ha)                3211          -99
      Number at maturity (no/m2)                             899          -99
      Unit wt at maturity (g [dm]/unit)                   0.3572          -99
      Number at maturity (no/unit)                         149.9          -99
      Tops weight at maturity (kg [dm]/ha)                 10912          -99
      By-product produced (stalk) at maturity (kg[dm]/ha    7757          -99
      Leaf area index, maximum                              3.25          -99
      Harvest index at maturity                            0.294          -99
      Grain N at maturity (kg/ha)                             57          -99
      Tops N at maturity (kg/ha)                             110          -99
      Stem N at maturity (kg/ha)                              53          -99
      Grain N at maturity (%)                                1.8          -99
      Tops weight at anthesis (kg [dm]/ha)                  5956          -99
      Tops N at anthesis (kg/ha)                             111          -99
      Leaf number per stem at maturity                     21.33          -99
      Emergence day (dap)                                      6          -99


*ENVIRONMENTAL AND STRESS FACTORS

 |-----Development Phase------|--------------------------------------Environment--------------------------------------|-----------------Stress-----------------|
                              |---------------Average--------------|-----Cumulative-----|--------Count of days--------|          (0=Min, 1=Max Stress)         |
                         Time  Temp  Temp  Temp Solar Photop                Evapo    Pot TMIN TMIN TMAX TMAX TMAX RAIN|----Water----|---Nitrogen--|-Phosphorus-|
                         Span   Max   Min  Mean   Rad  [day]    CO2   Rain  Trans     ET   <    <    >    >    >    >   Photo         Photo         Photo
                         days    øC    øC    øC MJ/m2     hr    ppm     mm     mm     mm  0øC  2øC 30øC 32øC 34øC  0mm  synth Growth  synth Growth  synth Growth
----------------------------------------------------------------------------------------------------------------------------------------------------------------
 Emergence-End Juvenile    15  27.8  15.2  21.5  21.0  12.48  380.0    5.2   10.5   78.8    0    0    2    0    0    1  0.142  0.296  0.002  0.004  0.000  0.000
 End Juvenil-Floral Init    5  27.5  15.8  21.6  18.9  12.47  380.0   46.7   17.4   23.9    0    0    0    0    0    2  0.118  0.212  0.001  0.003  0.000  0.000
 Floral Init-End Lf Grow   39  27.2  15.6  21.4  19.9  12.37  380.0  147.1  147.0  178.3    0    0    5    0    0    7  0.052  0.140  0.011  0.029  0.000  0.000
 End Lf Grth-Beg Grn Fil   13  25.8  15.9  20.8  18.4  12.21  380.0   36.4   52.3   52.6    0    0    0    0    0    1  0.000  0.000  0.002  0.005  0.000  0.000
 Grain Filling Phase       47  27.8  15.3  21.6  21.6  11.97  380.0   53.1  118.0  231.3    0    0    3    0    0    6  0.524  0.555  0.000  0.000  0.000  0.000
   
 Planting to Harvest      126  27.4  15.4  21.4  20.6  12.22  380.0  288.5  350.2  604.1    0    0   10    0    0   17  0.241  0.302  0.004  0.010  0.000  0.000
----------------------------------------------------------------------------------------------------------------------------------------------------------------


*Resource Productivity
 Growing season length: 126 days 

 Precipitation during growing season       288.5 mm[rain]
   Dry Matter Productivity                  3.78 kg[DM]/m3[rain]          =   37.8 kg[DM]/ha per mm[rain]
   Yield Productivity                       1.11 kg[grain yield]/m3[rain] =   11.1 kg[yield]/ha per mm[rain]

 Evapotranspiration during growing season  350.2 mm[ET]
   Dry Matter Productivity                  3.12 kg[DM]/m3[ET]            =   31.2 kg[DM]/ha per mm[ET]
   Yield Productivity                       0.92 kg[grain yield]/m3[ET]   =    9.2 kg[yield]/ha per mm[ET]

 Transpiration during growing season       257.2 mm[EP]
   Dry Matter Productivity                  4.24 kg[DM]/m3[EP]            =   42.4 kg[DM]/ha per mm[EP]
   Yield Productivity                       1.25 kg[grain yield]/m3[EP]   =   12.5 kg[yield]/ha per mm[EP]

 N applied during growing season             60. kg[N applied]/ha
   Dry Matter Productivity                 181.9 kg[DM]/kg[N applied]
   Yield Productivity                       53.5 kg[yield]/kg[N applied]

 N uptake during growing season              126 kg[N uptake]/ha
   Dry Matter Productivity                  86.6 kg[DM]/kg[N uptake]
   Yield Productivity                       25.5 kg[yield]/kg[N uptake]

--------------------------------------------------------------------------------------------------------------

                     Maize YIELD :     3211 kg/ha    [Dry weight] 

**************************************************************************************************************

*DSSAT Cropping System Model Ver. 4.7.5.008 -release  JAN 07, 2021 20:14:37

*RUN   8        : ERiMA DCC1                MZCER047 ETMZmelk    1
 MODEL          : MZCER047 - Maize
 EXPERIMENT     : ETMZmelk SN MELKSSAL
 DATA PATH      : C:\IRI\Python_Dash\ET_DSS_hist\TEST\
 TREATMENT  1   : ERiMA DCC1                MZCER047


 CROP           : Maize            CULTIVAR : BH540-Kassie     ECOTYPE :IB0001
 STARTING DATE  : JUN 13 1988
 PLANTING DATE  : JUN 14 1988        PLANTS/m2 :  6.0     ROW SPACING :  75.cm
 WEATHER        : MELK8801
 SOIL           : ETET001_18     TEXTURE : L     -   ET000_18
 SOIL INITIAL C : DEPTH:200cm EXTR. H2O:300.3mm  NO3: 39.6kg/ha  NH4:  2.4kg/ha
 WATER BALANCE  : RAINFED
 IRRIGATION     : NOT IRRIGATED
 NITROGEN BAL.  : SOIL-N & N-UPTAKE SIMULATION; NO N-FIXATION
 N-FERTILIZER   :       60 kg/ha IN     2 APPLICATIONS
 RESIDUE/MANURE : INITIAL :     0 kg/ha ;       0 kg/ha IN     0 APPLICATIONS
 ENVIRONM. OPT. : DAYL=    0.00  SRAD=    0.00  TMAX=    0.00  TMIN=    0.00
                  RAIN=    0.00  CO2 =    0.00  DEW =    0.00  WIND=    0.00
 SIMULATION OPT : WATER   :Y  NITROGEN:Y  N-FIX:N  PHOSPH :N  PESTS  :N
                  PHOTO   :C  ET      :R  INFIL:S  HYDROL :R  SOM    :G
                  CO2     :D  NSWIT   :1  EVAP :S  SOIL   :2  STEMP  :D
 MANAGEMENT OPT : PLANTING:R  IRRIG   :N  FERT :D  RESIDUE:N  HARVEST:M
                  WEATHER :M  TILLAGE :N

*SUMMARY OF SOIL AND GENETIC INPUT PARAMETERS

   SOIL LOWER UPPER   SAT  EXTR  INIT   ROOT   BULK     pH    NO3    NH4    ORG
  DEPTH LIMIT LIMIT    SW    SW    SW   DIST   DENS                          C
   cm   cm3/cm3    cm3/cm3    cm3/cm3         g/cm3         ugN/g  ugN/g     %
-------------------------------------------------------------------------------
  0-  5 0.166 0.260 0.433 0.094 0.231   1.00   1.20   7.90  15.00   0.10   1.50
  5- 15 0.166 0.260 0.433 0.094 0.231   1.00   1.20   7.90  15.00   0.10   1.50
 15- 20 0.166 0.260 0.433 0.094 0.231   1.00   1.20   7.90  15.00   0.10   1.50
 20- 35 0.121 0.264 0.434 0.143 0.221   0.58   1.20   8.00   2.00   0.10   1.48
 35- 50 0.121 0.316 0.466 0.195 0.316   0.10   1.10   8.30   0.00   0.10   1.46
 50- 65 0.121 0.316 0.466 0.195 0.316   0.10   1.10   8.30   0.00   0.10   1.46
 65- 81 0.134 0.304 0.477 0.170 0.304   0.00   1.00   8.50   0.00   0.10   1.40
 81- 97 0.134 0.304 0.477 0.170 0.304   0.00   1.00   8.50   0.00   0.10   1.40
 97-118 0.156 0.305 0.433 0.149 0.305   0.00   1.28   8.60   0.00   0.10   0.98
118-140 0.156 0.305 0.433 0.149 0.305   0.00   1.28   8.60   0.00   0.10   0.98
140-170 0.162 0.298 0.428 0.136 0.298   0.00   1.36   8.50   0.00   0.10   0.78
170-200 0.173 0.314 0.433 0.141 0.314   0.00   1.33   8.30   0.00   0.10   0.78

TOT-200  29.8  59.8  88.9  30.0  58.6  <--cm   -  kg/ha-->   39.6    2.4 272505
SOIL ALBEDO    : 0.13      EVAPORATION LIMIT : 6.00         MIN. FACTOR  : 1.00
RUNOFF CURVE # :81.00      DRAINAGE RATE     : 0.60         FERT. FACTOR : 0.70

 Maize      CULTIVAR :CIMT01-BH540-Kassie       ECOTYPE :IB0001
 P1     : 220.10  P2     : 0.8600  P5     : 840.10
 G2     : 266.20  G3     : 10.650  PHINT  : 38.900


*SIMULATED CROP AND SOIL STATUS AT MAIN DEVELOPMENT STAGES

 RUN NO.     8     ERiMA DCC1              

        CROP GROWTH     BIOMASS         LEAF   CROP N     STRESS      STRESS                                           
   DATE  AGE STAGE        kg/ha    LAI   NUM  kg/ha  %   H2O  Nitr Phos1 Phos2  RSTG                                   
 ------  --- ----------   -----  -----  ----  ---  ---  ----  ----  ----  ----  ----                                   
 13 JUN    0 Start Sim        0   0.00   0.0    0  0.0  0.00  0.00  0.00  0.00     7
 14 JUN    0 Sowing           0   0.00   0.0    0  0.0  0.00  0.00  0.00  0.00     8
 15 JUN    1 Germinate        0   0.00   0.0    0  0.0  0.00  0.00  0.00  0.00     9
 19 JUN    5 Emergence       24   0.00   2.1    1  4.4  0.00  0.01  0.00  0.00     1
  4 JUL   20 End Juveni     151   0.31   8.3    5  3.5  0.10  0.00  0.00  0.00     2
  9 JUL   25 Floral Ini     347   0.62  10.0   13  3.8  0.00  0.00  0.00  0.00     3
 20 AUG   67 75% Silkin    6435   3.45  21.0  104  1.6  0.00  0.04  0.00  0.00     4
  3 SEP   81 Beg Gr Fil    8940   3.24  21.0  109  1.2  0.00  0.09  0.00  0.00     5
 26 OCT  134 End Gr Fil   13782   1.49  21.0  117  0.9  0.12  0.16  0.00  0.00     6
 30 OCT  138 Maturity     13782   1.49  21.0  117  0.9  0.94  0.48  0.00  0.00    10
 30 OCT  138 Harvest      13782   1.49  21.0  117  0.9  0.00  0.00  0.00  0.00    10


*MAIN GROWTH AND DEVELOPMENT VARIABLES

@     VARIABLE                                         SIMULATED     MEASURED
      --------                                         ---------     --------
      Anthesis day (dap)                                      67          -99
      Physiological maturity day (dap)                       138          -99
      Yield at harvest maturity (kg [dm]/ha)                4953          -99
      Number at maturity (no/m2)                             921          -99
      Unit wt at maturity (g [dm]/unit)                   0.5376          -99
      Number at maturity (no/unit)                         153.6          -99
      Tops weight at maturity (kg [dm]/ha)                 13782          -99
      By-product produced (stalk) at maturity (kg[dm]/ha    8888          -99
      Leaf area index, maximum                              3.48          -99
      Harvest index at maturity                            0.359          -99
      Grain N at maturity (kg/ha)                             76          -99
      Tops N at maturity (kg/ha)                             117          -99
      Stem N at maturity (kg/ha)                              41          -99
      Grain N at maturity (%)                                1.5          -99
      Tops weight at anthesis (kg [dm]/ha)                  6281          -99
      Tops N at anthesis (kg/ha)                             103          -99
      Leaf number per stem at maturity                     20.99          -99
      Emergence day (dap)                                      5          -99


*ENVIRONMENTAL AND STRESS FACTORS

 |-----Development Phase------|--------------------------------------Environment--------------------------------------|-----------------Stress-----------------|
                              |---------------Average--------------|-----Cumulative-----|--------Count of days--------|          (0=Min, 1=Max Stress)         |
                         Time  Temp  Temp  Temp Solar Photop                Evapo    Pot TMIN TMIN TMAX TMAX TMAX RAIN|----Water----|---Nitrogen--|-Phosphorus-|
                         Span   Max   Min  Mean   Rad  [day]    CO2   Rain  Trans     ET   <    <    >    >    >    >   Photo         Photo         Photo
                         days    øC    øC    øC MJ/m2     hr    ppm     mm     mm     mm  0øC  2øC 30øC 32øC 34øC  0mm  synth Growth  synth Growth  synth Growth
----------------------------------------------------------------------------------------------------------------------------------------------------------------
 Emergence-End Juvenile    15  27.6  15.8  21.7  20.3  12.49  380.0   60.7   35.7   76.9    0    0    4    1    0    3  0.023  0.104  0.002  0.005  0.000  0.000
 End Juvenil-Floral Init    5  25.6  16.4  21.0  18.1  12.47  380.0   30.8   22.5   22.5    0    0    0    0    0    2  0.000  0.000  0.000  0.001  0.000  0.000
 Floral Init-End Lf Grow   42  24.3  16.0  20.1  15.9  12.37  380.0  284.4  146.0  148.6    0    0    0    0    0   23  0.000  0.000  0.014  0.036  0.000  0.000
 End Lf Grth-Beg Grn Fil   14  25.2  15.5  20.3  19.7  12.19  380.0   59.7   59.6   59.9    0    0    0    0    0    4  0.000  0.000  0.041  0.102  0.000  0.000
 Grain Filling Phase       53  25.2  14.5  19.8  20.2  11.93  380.0  135.3  204.6  232.4    0    0    0    0    0    8  0.086  0.105  0.061  0.152  0.000  0.000
   
 Planting to Harvest      138  25.4  15.2  20.3  19.0  12.18  380.0  570.9  475.3  590.4    0    0    7    1    0   40  0.061  0.078  0.038  0.094  0.000  0.000
----------------------------------------------------------------------------------------------------------------------------------------------------------------


*Resource Productivity
 Growing season length: 138 days 

 Precipitation during growing season       570.9 mm[rain]
   Dry Matter Productivity                  2.41 kg[DM]/m3[rain]          =   24.1 kg[DM]/ha per mm[rain]
   Yield Productivity                       0.87 kg[grain yield]/m3[rain] =    8.7 kg[yield]/ha per mm[rain]

 Evapotranspiration during growing season  475.3 mm[ET]
   Dry Matter Productivity                  2.90 kg[DM]/m3[ET]            =   29.0 kg[DM]/ha per mm[ET]
   Yield Productivity                       1.04 kg[grain yield]/m3[ET]   =   10.4 kg[yield]/ha per mm[ET]

 Transpiration during growing season       348.8 mm[EP]
   Dry Matter Productivity                  3.95 kg[DM]/m3[EP]            =   39.5 kg[DM]/ha per mm[EP]
   Yield Productivity                       1.42 kg[grain yield]/m3[EP]   =   14.2 kg[yield]/ha per mm[EP]

 N applied during growing season             60. kg[N applied]/ha
   Dry Matter Productivity                 229.7 kg[DM]/kg[N applied]
   Yield Productivity                       82.6 kg[yield]/kg[N applied]

 N uptake during growing season              132 kg[N uptake]/ha
   Dry Matter Productivity                 104.4 kg[DM]/kg[N uptake]
   Yield Productivity                       37.5 kg[yield]/kg[N uptake]

--------------------------------------------------------------------------------------------------------------

                     Maize YIELD :     4953 kg/ha    [Dry weight] 

**************************************************************************************************************

*DSSAT Cropping System Model Ver. 4.7.5.008 -release  JAN 07, 2021 20:14:37

*RUN   9        : ERiMA DCC1                MZCER047 ETMZmelk    1
 MODEL          : MZCER047 - Maize
 EXPERIMENT     : ETMZmelk SN MELKSSAL
 DATA PATH      : C:\IRI\Python_Dash\ET_DSS_hist\TEST\
 TREATMENT  1   : ERiMA DCC1                MZCER047


 CROP           : Maize            CULTIVAR : BH540-Kassie     ECOTYPE :IB0001
 STARTING DATE  : JUN 14 1989
 PLANTING DATE  : JUN 15 1989        PLANTS/m2 :  6.0     ROW SPACING :  75.cm
 WEATHER        : MELK8901
 SOIL           : ETET001_18     TEXTURE : L     -   ET000_18
 SOIL INITIAL C : DEPTH:200cm EXTR. H2O:300.3mm  NO3: 39.6kg/ha  NH4:  2.4kg/ha
 WATER BALANCE  : RAINFED
 IRRIGATION     : NOT IRRIGATED
 NITROGEN BAL.  : SOIL-N & N-UPTAKE SIMULATION; NO N-FIXATION
 N-FERTILIZER   :       60 kg/ha IN     2 APPLICATIONS
[...]

                     Maize YIELD :     4839 kg/ha    [Dry weight] 

**************************************************************************************************************

*DSSAT Cropping System Model Ver. 4.7.5.008 -release  JAN 07, 2021 20:14:52

*RUN  67        : ERiMA DCC1                MZCER047 ETMZawas    1
 MODEL          : MZCER047 - Maize
 EXPERIMENT     : ETMZawas SN MELKSSAL
 DATA PATH      : C:\IRI\Python_Dash\ET_DSS_hist\TEST\
 TREATMENT  1   : ERiMA DCC1                MZCER047


 CROP           : Maize            CULTIVAR : BH540-Kassie     ECOTYPE :IB0001
 STARTING DATE  : JUN 14 2013
 PLANTING DATE  : JUN 15 2013        PLANTS/m2 :  6.0     ROW SPACING :  75.cm
 WEATHER        : AWAS1301
 SOIL           : ETET001_18     TEXTURE : L     -   ET000_18
 SOIL INITIAL C : DEPTH:200cm EXTR. H2O:300.3mm  NO3: 39.6kg/ha  NH4:  2.4kg/ha
 WATER BALANCE  : RAINFED
 IRRIGATION     : NOT IRRIGATED
 NITROGEN BAL.  : SOIL-N & N-UPTAKE SIMULATION; NO N-FIXATION
 N-FERTILIZER   :       60 kg/ha IN     2 APPLICATIONS
 RESIDUE/MANURE : INITIAL :     0 kg/ha ;       0 kg/ha IN     0 APPLICATIONS
 ENVIRONM. OPT. : DAYL=    0.00  SRAD=    0.00  TMAX=    0.00  TMIN=    0.00
                  RAIN=    0.00  CO2 =    0.00  DEW =    0.00  WIND=    0.00
 SIMULATION OPT : WATER   :Y  NITROGEN:Y  N-FIX:N  PHOSPH :N  PESTS  :N
                  PHOTO   :C  ET      :R  INFIL:S  HYDROL :R  SOM    :G
                  CO2     :D  NSWIT   :1  EVAP :S  SOIL   :2  STEMP  :D
 MANAGEMENT OPT : PLANTING:R  IRRIG   :N  FERT :D  RESIDUE:N  HARVEST:M
                  WEATHER :M  TILLAGE :N

*SUMMARY OF SOIL AND GENETIC INPUT PARAMETERS

   SOIL LOWER UPPER   SAT  EXTR  INIT   ROOT   BULK     pH    NO3    NH4    ORG
  DEPTH LIMIT LIMIT    SW    SW    SW   DIST   DENS                          C
   cm   cm3/cm3    cm3/cm3    cm3/cm3         g/cm3         ugN/g  ugN/g     %
-------------------------------------------------------------------------------
  0-  5 0.166 0.260 0.433 0.094 0.231   1.00   1.20   7.90  15.00   0.10   1.50
  5- 15 0.166 0.260 0.433 0.094 0.231   1.00   1.20   7.90  15.00   0.10   1.50
 15- 20 0.166 0.260 0.433 0.094 0.231   1.00   1.20   7.90  15.00   0.10   1.50
 20- 35 0.121 0.264 0.434 0.143 0.221   0.58   1.20   8.00   2.00   0.10   1.48
 35- 50 0.121 0.316 0.466 0.195 0.316   0.10   1.10   8.30   0.00   0.10   1.46
 50- 65 0.121 0.316 0.466 0.195 0.316   0.10   1.10   8.30   0.00   0.10   1.46
 65- 81 0.134 0.304 0.477 0.170 0.304   0.00   1.00   8.50   0.00   0.10   1.40
 81- 97 0.134 0.304 0.477 0.170 0.304   0.00   1.00   8.50   0.00   0.10   1.40
 97-118 0.156 0.305 0.433 0.149 0.305   0.00   1.28   8.60   0.00   0.10   0.98
118-140 0.156 0.305 0.433 0.149 0.305   0.00   1.28   8.60   0.00   0.10   0.98
140-170 0.162 0.298 0.428 0.136 0.298   0.00   1.36   8.50   0.00   0.10   0.78
170-200 0.173 0.314 0.433 0.141 0.314   0.00   1.33   8.30   0.00   0.10   0.78

TOT-200  29.8  59.8  88.9  30.0  58.6  <--cm   -  kg/ha-->   39.6    2.4 272505
SOIL ALBEDO    : 0.13      EVAPORATION LIMIT : 6.00         MIN. FACTOR  : 1.00
RUNOFF CURVE # :81.00      DRAINAGE RATE     : 0.60         FERT. FACTOR : 0.70

 Maize      CULTIVAR :CIMT01-BH540-Kassie       ECOTYPE :IB0001
 P1     : 220.10  P2     : 0.8600  P5     : 840.10
 G2     : 266.20  G3     : 10.650  PHINT  : 38.900


*SIMULATED CROP AND SOIL STATUS AT MAIN DEVELOPMENT STAGES

 RUN NO.    67     ERiMA DCC1              

        CROP GROWTH     BIOMASS         LEAF   CROP N     STRESS      STRESS                                           
   DATE  AGE STAGE        kg/ha    LAI   NUM  kg/ha  %   H2O  Nitr Phos1 Phos2  RSTG                                   
 ------  --- ----------   -----  -----  ----  ---  ---  ----  ----  ----  ----  ----                                   
 14 JUN    0 Start Sim        0   0.00   0.0    0  0.0  0.00  0.00  0.00  0.00     7
 15 JUN    0 Sowing           0   0.00   0.0    0  0.0  0.00  0.00  0.00  0.00     8
 16 JUN    1 Germinate        0   0.00   0.0    0  0.0  0.00  0.00  0.00  0.00     9
 21 JUN    6 Emergence       24   0.00   2.0    1  4.4  0.00  0.01  0.00  0.00     1
  8 JUL   23 End Juveni     171   0.34   8.3    6  3.5  0.00  0.00  0.00  0.00     2
 13 JUL   28 Floral Ini     337   0.60   9.8   13  3.8  0.00  0.00  0.00  0.00     3
 25 AUG   71 75% Silkin    6816   3.56  20.6  108  1.6  0.00  0.06  0.00  0.00     4
  8 SEP   85 Beg Gr Fil    9254   3.31  20.6  114  1.2  0.00  0.10  0.00  0.00     5
 28 OCT  135 End Gr Fil   14063   1.57  20.6  123  0.9  0.00  0.10  0.00  0.00     6
 31 OCT  138 Maturity     14063   1.57  20.6  123  0.9  0.57  0.39  0.00  0.00    10
 31 OCT  138 Harvest      14063   1.57  20.6  123  0.9  0.00  0.00  0.00  0.00    10


*MAIN GROWTH AND DEVELOPMENT VARIABLES

@     VARIABLE                                         SIMULATED     MEASURED
      --------                                         ---------     --------
      Anthesis day (dap)                                      71          -99
      Physiological maturity day (dap)                       138          -99
      Yield at harvest maturity (kg [dm]/ha)                4907          -99
      Number at maturity (no/m2)                             922          -99
      Unit wt at maturity (g [dm]/unit)                   0.5325          -99
      Number at maturity (no/unit)                         153.6          -99
      Tops weight at maturity (kg [dm]/ha)                 14063          -99
      By-product produced (stalk) at maturity (kg[dm]/ha    9219          -99
      Leaf area index, maximum                              3.59          -99
      Harvest index at maturity                            0.349          -99
      Grain N at maturity (kg/ha)                             77          -99
      Tops N at maturity (kg/ha)                             123          -99
      Stem N at maturity (kg/ha)                              46          -99
      Grain N at maturity (%)                                1.6          -99
      Tops weight at anthesis (kg [dm]/ha)                  6633          -99
      Tops N at anthesis (kg/ha)                             107          -99
      Leaf number per stem at maturity                     20.64          -99
      Emergence day (dap)                                      6          -99


*ENVIRONMENTAL AND STRESS FACTORS

 |-----Development Phase------|--------------------------------------Environment--------------------------------------|-----------------Stress-----------------|
                              |---------------Average--------------|-----Cumulative-----|--------Count of days--------|          (0=Min, 1=Max Stress)         |
                         Time  Temp  Temp  Temp Solar Photop                Evapo    Pot TMIN TMIN TMAX TMAX TMAX RAIN|----Water----|---Nitrogen--|-Phosphorus-|
                         Span   Max   Min  Mean   Rad  [day]    CO2   Rain  Trans     ET   <    <    >    >    >    >   Photo         Photo         Photo
                         days    øC    øC    øC MJ/m2     hr    ppm     mm     mm     mm  0øC  2øC 30øC 32øC 34øC  0mm  synth Growth  synth Growth  synth Growth
----------------------------------------------------------------------------------------------------------------------------------------------------------------
 Emergence-End Juvenile    17  25.5  15.1  20.3  17.7  12.40  380.0   45.8   48.4   75.3    0    0    0    0    0    6  0.000  0.000  0.002  0.006  0.000  0.000
 End Juvenil-Floral Init    5  24.1  14.8  19.4  17.7  12.39  380.0   24.3   17.0   21.1    0    0    0    0    0    1  0.000  0.000  0.001  0.001  0.000  0.000
 Floral Init-End Lf Grow   43  24.4  14.9  19.7  17.3  12.29  380.0  198.0  163.4  164.1    0    0    0    0    0   16  0.000  0.000  0.021  0.052  0.000  0.000
 End Lf Grth-Beg Grn Fil   14  25.1  14.7  19.9  19.6  12.13  380.0   71.6   59.0   59.3    0    0    0    0    0    5  0.000  0.000  0.047  0.116  0.000  0.000
 Grain Filling Phase       50  26.6  14.8  20.7  21.3  11.92  380.0  149.2  229.1  235.8    0    0    0    0    0   13  0.000  0.000  0.038  0.096  0.000  0.000
   
 Planting to Harvest      138  25.5  14.8  20.2  19.2  12.15  380.0  545.8  555.0  599.0    0    0    0    0    0   45  0.004  0.008  0.029  0.072  0.000  0.000
----------------------------------------------------------------------------------------------------------------------------------------------------------------


*Resource Productivity
 Growing season length: 138 days 

 Precipitation during growing season       545.8 mm[rain]
   Dry Matter Productivity                  2.58 kg[DM]/m3[rain]          =   25.8 kg[DM]/ha per mm[rain]
   Yield Productivity                       0.90 kg[grain yield]/m3[rain] =    9.0 kg[yield]/ha per mm[rain]

 Evapotranspiration during growing season  555.0 mm[ET]
   Dry Matter Productivity                  2.53 kg[DM]/m3[ET]            =   25.3 kg[DM]/ha per mm[ET]
   Yield Productivity                       0.88 kg[grain yield]/m3[ET]   =    8.8 kg[yield]/ha per mm[ET]

 Transpiration during growing season       391.9 mm[EP]
   Dry Matter Productivity                  3.59 kg[DM]/m3[EP]            =   35.9 kg[DM]/ha per mm[EP]
   Yield Productivity                       1.25 kg[grain yield]/m3[EP]   =   12.5 kg[yield]/ha per mm[EP]

 N applied during growing season             60. kg[N applied]/ha
   Dry Matter Productivity                 234.4 kg[DM]/kg[N applied]
   Yield Productivity                       81.8 kg[yield]/kg[N applied]

 N uptake during growing season              144 kg[N uptake]/ha
   Dry Matter Productivity                  97.7 kg[DM]/kg[N uptake]
   Yield Productivity                       34.1 kg[yield]/kg[N uptake]

--------------------------------------------------------------------------------------------------------------

                     Maize YIELD :     4907 kg/ha    [Dry weight] 

**************************************************************************************************************

*DSSAT Cropping System Model Ver. 4.7.5.008 -release  JAN 07, 2021 20:14:52

*RUN  68        : ERiMA DCC1                MZCER047 ETMZawas    1
 MODEL          : MZCER047 - Maize
 EXPERIMENT     : ETMZawas SN MELKSSAL
 DATA PATH      : C:\IRI\Python_Dash\ET_DSS_hist\TEST\
 TREATMENT  1   : ERiMA DCC1                MZCER047


 CROP           : Maize            CULTIVAR : BH540-Kassie     ECOTYPE :IB0001
 STARTING DATE  : JUN 14 2014
 PLANTING DATE  : JUN 15 2014        PLANTS/m2 :  6.0     ROW SPACING :  75.cm
 WEATHER        : AWAS1401
 SOIL           : ETET001_18     TEXTURE : L     -   ET000_18
 SOIL INITIAL C : DEPTH:200cm EXTR. H2O:300.3mm  NO3: 39.6kg/ha  NH4:  2.4kg/ha
 WATER BALANCE  : RAINFED
 IRRIGATION     : NOT IRRIGATED
 NITROGEN BAL.  : SOIL-N & N-UPTAKE SIMULATION; NO N-FIXATION
 N-FERTILIZER   :       60 kg/ha IN     2 APPLICATIONS
 RESIDUE/MANURE : INITIAL :     0 kg/ha ;       0 kg/ha IN     0 APPLICATIONS
 ENVIRONM. OPT. : DAYL=    0.00  SRAD=    0.00  TMAX=    0.00  TMIN=    0.00
                  RAIN=    0.00  CO2 =    0.00  DEW =    0.00  WIND=    0.00
 SIMULATION OPT : WATER   :Y  NITROGEN:Y  N-FIX:N  PHOSPH :N  PESTS  :N
                  PHOTO   :C  ET      :R  INFIL:S  HYDROL :R  SOM    :G
                  CO2     :D  NSWIT   :1  EVAP :S  SOIL   :2  STEMP  :D
 MANAGEMENT OPT : PLANTING:R  IRRIG   :N  FERT :D  RESIDUE:N  HARVEST:M
                  WEATHER :M  TILLAGE :N

*SUMMARY OF SOIL AND GENETIC INPUT PARAMETERS

   SOIL LOWER UPPER   SAT  EXTR  INIT   ROOT   BULK     pH    NO3    NH4    ORG
  DEPTH LIMIT LIMIT    SW    SW    SW   DIST   DENS                          C
   cm   cm3/cm3    cm3/cm3    cm3/cm3         g/cm3         ugN/g  ugN/g     %
-------------------------------------------------------------------------------
  0-  5 0.166 0.260 0.433 0.094 0.231   1.00   1.20   7.90  15.00   0.10   1.50
  5- 15 0.166 0.260 0.433 0.094 0.231   1.00   1.20   7.90  15.00   0.10   1.50
 15- 20 0.166 0.260 0.433 0.094 0.231   1.00   1.20   7.90  15.00   0.10   1.50
 20- 35 0.121 0.264 0.434 0.143 0.221   0.58   1.20   8.00   2.00   0.10   1.48
 35- 50 0.121 0.316 0.466 0.195 0.316   0.10   1.10   8.30   0.00   0.10   1.46
 50- 65 0.121 0.316 0.466 0.195 0.316   0.10   1.10   8.30   0.00   0.10   1.46
 65- 81 0.134 0.304 0.477 0.170 0.304   0.00   1.00   8.50   0.00   0.10   1.40
 81- 97 0.134 0.304 0.477 0.170 0.304   0.00   1.00   8.50   0.00   0.10   1.40
 97-118 0.156 0.305 0.433 0.149 0.305   0.00   1.28   8.60   0.00   0.10   0.98
118-140 0.156 0.305 0.433 0.149 0.305   0.00   1.28   8.60   0.00   0.10   0.98
140-170 0.162 0.298 0.428 0.136 0.298   0.00   1.36   8.50   0.00   0.10   0.78
170-200 0.173 0.314 0.433 0.141 0.314   0.00   1.33   8.30   0.00   0.10   0.78

TOT-200  29.8  59.8  88.9  30.0  58.6  <--cm   -  kg/ha-->   39.6    2.4 272505
SOIL ALBEDO    : 0.13      EVAPORATION LIMIT : 6.00         MIN. FACTOR  : 1.00
RUNOFF CURVE # :81.00      DRAINAGE RATE     : 0.60         FERT. FACTOR : 0.70

 Maize      CULTIVAR :CIMT01-BH540-Kassie       ECOTYPE :IB0001
 P1     : 220.10  P2     : 0.8600  P5     : 840.10
 G2     : 266.20  G3     : 10.650  PHINT  : 38.900


*SIMULATED CROP AND SOIL STATUS AT MAIN DEVELOPMENT STAGES

 RUN NO.    68     ERiMA DCC1              

        CROP GROWTH     BIOMASS         LEAF   CROP N     STRESS      STRESS                                           
   DATE  AGE STAGE        kg/ha    LAI   NUM  kg/ha  %   H2O  Nitr Phos1 Phos2  RSTG                                   
 ------  --- ----------   -----  -----  ----  ---  ---  ----  ----  ----  ----  ----                                   
 14 JUN    0 Start Sim        0   0.00   0.0    0  0.0  0.00  0.00  0.00  0.00     7
 15 JUN    0 Sowing           0   0.00   0.0    0  0.0  0.00  0.00  0.00  0.00     8
 16 JUN    1 Germinate        0   0.00   0.0    0  0.0  0.00  0.00  0.00  0.00     9
 21 JUN    6 Emergence       24   0.00   2.0    1  4.4  0.00  0.01  0.00  0.00     1
  7 JUL   22 End Juveni     158   0.32   8.1    6  3.5  0.00  0.00  0.00  0.00     2
 12 JUL   27 Floral Ini     337   0.60   9.8   13  3.8  0.00  0.00  0.00  0.00     3
 20 AUG   66 75% Silkin    6486   3.68  20.6  115  1.8  0.03  0.03  0.00  0.00     4
  2 SEP   79 Beg Gr Fil    8705   3.47  20.6  119  1.4  0.00  0.02  0.00  0.00     5
 20 OCT  127 End Gr Fil   13252   1.59  20.6  126  1.0  0.00  0.03  0.00  0.00     6
 24 OCT  131 Maturity     13252   1.59  20.6  126  1.0  0.00  0.20  0.00  0.00    10
 24 OCT  131 Harvest      13252   1.59  20.6  126  1.0  0.00  0.00  0.00  0.00    10


*MAIN GROWTH AND DEVELOPMENT VARIABLES

@     VARIABLE                                         SIMULATED     MEASURED
      --------                                         ---------     --------
      Anthesis day (dap)                                      66          -99
      Physiological maturity day (dap)                       131          -99
      Yield at harvest maturity (kg [dm]/ha)                4644          -99
      Number at maturity (no/m2)                             908          -99
      Unit wt at maturity (g [dm]/unit)                   0.5112          -99
      Number at maturity (no/unit)                         151.4          -99
      Tops weight at maturity (kg [dm]/ha)                 13252          -99
      By-product produced (stalk) at maturity (kg[dm]/ha    8670          -99
      Leaf area index, maximum                              3.71          -99
      Harvest index at maturity                            0.350          -99
      Grain N at maturity (kg/ha)                             77          -99
      Tops N at maturity (kg/ha)                             126          -99
      Stem N at maturity (kg/ha)                              49          -99
      Grain N at maturity (%)                                1.7          -99
      Tops weight at anthesis (kg [dm]/ha)                  6316          -99
      Tops N at anthesis (kg/ha)                             115          -99
      Leaf number per stem at maturity                     20.58          -99
      Emergence day (dap)                                      6          -99


*ENVIRONMENTAL AND STRESS FACTORS

 |-----Development Phase------|--------------------------------------Environment--------------------------------------|-----------------Stress-----------------|
                              |---------------Average--------------|-----Cumulative-----|--------Count of days--------|          (0=Min, 1=Max Stress)         |
                         Time  Temp  Temp  Temp Solar Photop                Evapo    Pot TMIN TMIN TMAX TMAX TMAX RAIN|----Water----|---Nitrogen--|-Phosphorus-|
                         Span   Max   Min  Mean   Rad  [day]    CO2   Rain  Trans     ET   <    <    >    >    >    >   Photo         Photo         Photo
                         days    øC    øC    øC MJ/m2     hr    ppm     mm     mm     mm  0øC  2øC 30øC 32øC 34øC  0mm  synth Growth  synth Growth  synth Growth
----------------------------------------------------------------------------------------------------------------------------------------------------------------
 Emergence-End Juvenile    16  26.1  14.9  20.5  18.9  12.41  380.0   36.9   31.3   74.9    0    0    0    0    0    2  0.000  0.000  0.002  0.005  0.000  0.000
 End Juvenil-Floral Init    5  24.6  16.6  20.6  17.5  12.39  380.0   15.9   18.9   21.3    0    0    0    0    0    3  0.000  0.000  0.000  0.001  0.000  0.000
 Floral Init-End Lf Grow   39  25.6  16.4  21.0  17.0  12.31  380.0  152.3  144.6  149.7    0    0    0    0    0   13  0.001  0.029  0.010  0.025  0.000  0.000
 End Lf Grth-Beg Grn Fil   13  26.4  16.3  21.3  18.2  12.17  380.0  104.1   52.2   52.5    0    0    0    0    0    7  0.000  0.000  0.009  0.023  0.000  0.000
 Grain Filling Phase       48  26.4  15.4  20.9  20.9  11.97  380.0  229.6  220.1  222.5    0    0    0    0    0   18  0.000  0.000  0.010  0.026  0.000  0.000
   
 Planting to Harvest      131  26.1  15.7  20.9  19.0  12.17  380.0  538.8  490.1  569.6    0    0    0    0    0   43  0.000  0.009  0.010  0.026  0.000  0.000
----------------------------------------------------------------------------------------------------------------------------------------------------------------


*Resource Productivity
 Growing season length: 131 days 

 Precipitation during growing season       538.8 mm[rain]
   Dry Matter Productivity                  2.46 kg[DM]/m3[rain]          =   24.6 kg[DM]/ha per mm[rain]
   Yield Productivity                       0.86 kg[grain yield]/m3[rain] =    8.6 kg[yield]/ha per mm[rain]

 Evapotranspiration during growing season  490.1 mm[ET]
   Dry Matter Productivity                  2.70 kg[DM]/m3[ET]            =   27.0 kg[DM]/ha per mm[ET]
   Yield Productivity                       0.95 kg[grain yield]/m3[ET]   =    9.5 kg[yield]/ha per mm[ET]

 Transpiration during growing season       370.0 mm[EP]
   Dry Matter Productivity                  3.58 kg[DM]/m3[EP]            =   35.8 kg[DM]/ha per mm[EP]
   Yield Productivity                       1.26 kg[grain yield]/m3[EP]   =   12.6 kg[yield]/ha per mm[EP]

 N applied during growing season             60. kg[N applied]/ha
   Dry Matter Productivity                 220.9 kg[DM]/kg[N applied]
   Yield Productivity                       77.4 kg[yield]/kg[N applied]

 N uptake during growing season              149 kg[N uptake]/ha
   Dry Matter Productivity                  88.9 kg[DM]/kg[N uptake]
   Yield Productivity                       31.2 kg[yield]/kg[N uptake]

--------------------------------------------------------------------------------------------------------------

                     Maize YIELD :     4644 kg/ha    [Dry weight] 

**************************************************************************************************************
