*SIMULATION OVERVIEW FILE

*DSSAT Cropping System Model Ver. 4.7.5.008 -release  JAN 07, 2021 20:33:24

*RUN   1        : ERiMA DCC1                MZCER047 ETMZmelk    1
 MODEL          : MZCER047 - Maize
 EXPERIMENT     : ETMZmelk SN MELKSSAL
 DATA PATH      : C:\IRI\Python_Dash\ET_DSS_hist\TEST\
 TREATMENT  1   : ERiMA DCC1                MZCER047


 CROP           : Maize            CULTIVAR : MELKASA-early    ECOTYPE :IB0001
 STARTING DATE  : JUN 14 1981
 PLANTING DATE  : JUN 15 1981        PLANTS/m2 :  6.5     ROW SPACING :  75.cm
 WEATHER        : MELK   1981
 SOIL           : ETET001_18     TEXTURE : L     -   ET000_18
 SOIL INITIAL C : DEPTH:200cm EXTR. H2O:300.3mm  NO3: 39.6kg/ha  NH4:  2.4kg/ha
 WATER BALANCE  : RAINFED
 IRRIGATION     : NOT IRRIGATED
 NITROGEN BAL.  : SOIL-N & N-UPTAKE SIMULATION; NO N-FIXATION
 N-FERTILIZER   :       60 kg/ha IN     2 APPLICATIONS
 RESIDUE/MANURE : INITIAL :     0 kg/ha ;       0 kg/ha IN     0 APPLICATIONS
 ENVIRONM. OPT. : DAYL=    0.00  SRAD=    0.00  TMAX=    0.00  TMIN=    0.00
                  RAIN=    0.00  CO2 =    0.00  DEW =    0.00  WIND=    0.00
 SIMULATION OPT : WATER   :Y  NITROGEN:Y  N-FIX:N  PHOSPH :N  PESTS  :N
                  PHOTO   :C  ET      :R  INFIL:S  HYDROL :R  SOM    :G
                  CO2     :D  NSWIT   :1  EVAP :S  SOIL   :2  STEMP  :D
 MANAGEMENT OPT : PLANTING:R  IRRIG   :N  FERT :D  RESIDUE:N  HARVEST:M
                  WEATHER :M  TILLAGE :N

*SUMMARY OF SOIL AND GENETIC INPUT PARAMETERS

   SOIL LOWER UPPER   SAT  EXTR  INIT   ROOT   BULK     pH    NO3    NH4    ORG
  DEPTH LIMIT LIMIT    SW    SW    SW   DIST   DENS                          C
   cm   cm3/cm3    cm3/cm3    cm3/cm3         g/cm3         ugN/g  ugN/g     %
-------------------------------------------------------------------------------
  0-  5 0.166 0.260 0.433 0.094 0.231   1.00   1.20   7.90  15.00   0.10   1.50
  5- 15 0.166 0.260 0.433 0.094 0.231   1.00   1.20   7.90  15.00   0.10   1.50
 15- 20 0.166 0.260 0.433 0.094 0.231   1.00   1.20   7.90  15.00   0.10   1.50
 20- 35 0.121 0.264 0.434 0.143 0.221   0.58   1.20   8.00   2.00   0.10   1.48
 35- 50 0.121 0.316 0.466 0.195 0.316   0.10   1.10   8.30   0.00   0.10   1.46
 50- 65 0.121 0.316 0.466 0.195 0.316   0.10   1.10   8.30   0.00   0.10   1.46
 65- 81 0.134 0.304 0.477 0.170 0.304   0.00   1.00   8.50   0.00   0.10   1.40
 81- 97 0.134 0.304 0.477 0.170 0.304   0.00   1.00   8.50   0.00   0.10   1.40
 97-118 0.156 0.305 0.433 0.149 0.305   0.00   1.28   8.60   0.00   0.10   0.98
118-140 0.156 0.305 0.433 0.149 0.305   0.00   1.28   8.60   0.00   0.10   0.98
140-170 0.162 0.298 0.428 0.136 0.298   0.00   1.36   8.50   0.00   0.10   0.78
170-200 0.173 0.314 0.433 0.141 0.314   0.00   1.33   8.30   0.00   0.10   0.78

TOT-200  29.8  59.8  88.9  30.0  58.6  <--cm   -  kg/ha-->   39.6    2.4 272505
SOIL ALBEDO    : 0.13      EVAPORATION LIMIT : 6.00         MIN. FACTOR  : 1.00
RUNOFF CURVE # :81.00      DRAINAGE RATE     : 0.60         FERT. FACTOR : 0.70

 Maize      CULTIVAR :CIMT02-MELKASA-early      ECOTYPE :IB0001
 P1     : 101.50  P2     : 0.7500  P5     : 685.00
 G2     : 375.00  G3     : 11.650  PHINT  : 40.000


*SIMULATED CROP AND SOIL STATUS AT MAIN DEVELOPMENT STAGES

 RUN NO.     1     ERiMA DCC1              

        CROP GROWTH     BIOMASS         LEAF   CROP N     STRESS      STRESS                                           
   DATE  AGE STAGE        kg/ha    LAI   NUM  kg/ha  %   H2O  Nitr Phos1 Phos2  RSTG                                   
 ------  --- ----------   -----  -----  ----  ---  ---  ----  ----  ----  ----  ----                                   
 14 JUN    0 Start Sim        0   0.00   0.0    0  0.0  0.00  0.00  0.00  0.00     7
 15 JUN    0 Sowing           0   0.00   0.0    0  0.0  0.00  0.00  0.00  0.00     8
 16 JUN    1 Germinate        0   0.00   0.0    0  0.0  0.00  0.00  0.00  0.00     9
 20 JUN    5 Emergence       26   0.00   2.1    1  4.4  0.00  0.01  0.00  0.00     1
 27 JUN   12 End Juveni      42   0.09   5.3    1  3.2  0.00  0.00  0.00  0.00     2
  2 JUL   17 Floral Ini     103   0.22   7.1    4  3.9  0.18  0.00  0.00  0.00     3
  3 AUG   49 75% Silkin    3380   1.72  15.0   68  2.0  0.07  0.00  0.00  0.00     4
 17 AUG   63 Beg Gr Fil    5462   1.62  15.0   68  1.3  0.00  0.00  0.00  0.00     5
 26 SEP  103 End Gr Fil    9981   0.74  15.0  110  1.1  0.00  0.00  0.00  0.00     6
 29 SEP  106 Maturity      9981   0.74  15.0  110  1.1  0.00  0.00  0.00  0.00    10
 29 SEP  106 Harvest       9981   0.74  15.0  110  1.1  0.00  0.00  0.00  0.00    10


*MAIN GROWTH AND DEVELOPMENT VARIABLES

@     VARIABLE                                         SIMULATED     MEASURED
      --------                                         ---------     --------
      Anthesis day (dap)                                      49          -99
      Physiological maturity day (dap)                       106          -99
      Yield at harvest maturity (kg [dm]/ha)                4634          -99
      Number at maturity (no/m2)                             994          -99
      Unit wt at maturity (g [dm]/unit)                   0.4660          -99
      Number at maturity (no/unit)                         153.0          -99
      Tops weight at maturity (kg [dm]/ha)                  9981          -99
      By-product produced (stalk) at maturity (kg[dm]/ha    5374          -99
      Leaf area index, maximum                              1.80          -99
      Harvest index at maturity                            0.464          -99
      Grain N at maturity (kg/ha)                             79          -99
      Tops N at maturity (kg/ha)                             110          -99
      Stem N at maturity (kg/ha)                              31          -99
      Grain N at maturity (%)                                1.7          -99
      Tops weight at anthesis (kg [dm]/ha)                  3211          -99
      Tops N at anthesis (kg/ha)                              66          -99
      Leaf number per stem at maturity                     14.98          -99
      Emergence day (dap)                                      5          -99


*ENVIRONMENTAL AND STRESS FACTORS

 |-----Development Phase------|--------------------------------------Environment--------------------------------------|-----------------Stress-----------------|
                              |---------------Average--------------|-----Cumulative-----|--------Count of days--------|          (0=Min, 1=Max Stress)         |
                         Time  Temp  Temp  Temp Solar Photop                Evapo    Pot TMIN TMIN TMAX TMAX TMAX RAIN|----Water----|---Nitrogen--|-Phosphorus-|
                         Span   Max   Min  Mean   Rad  [day]    CO2   Rain  Trans     ET   <    <    >    >    >    >   Photo         Photo         Photo
                         days    øC    øC    øC MJ/m2     hr    ppm     mm     mm     mm  0øC  2øC 30øC 32øC 34øC  0mm  synth Growth  synth Growth  synth Growth
----------------------------------------------------------------------------------------------------------------------------------------------------------------
 Emergence-End Juvenile     7  29.1  15.5  22.3  20.2  12.49  380.0    9.6    5.7   36.6    0    0    2    0    0    2  0.000  0.000  0.002  0.006  0.000  0.000
 End Juvenil-Floral Init    5  27.6  16.1  21.8  17.9  12.48  380.0    3.4    6.7   22.9    0    0    1    0    0    1  0.031  0.087  0.002  0.004  0.000  0.000
 Floral Init-End Lf Grow   32  25.6  15.2  20.4  18.3  12.43  380.0  225.6  113.2  137.6    0    0    0    0    0   19  0.029  0.082  0.000  0.000  0.000  0.000
 End Lf Grth-Beg Grn Fil   14  25.0  15.2  20.1  19.4  12.31  380.0   56.1   60.1   60.8    0    0    0    0    0    6  0.000  0.000  0.000  0.000  0.000  0.000
 Grain Filling Phase       40  25.2  14.9  20.0  20.7  12.12  380.0  175.1  182.3  189.2    0    0    0    0    0   17  0.000  0.000  0.000  0.000  0.000  0.000
   
 Planting to Harvest      106  25.9  15.2  20.5  19.6  12.29  380.0  477.7  385.1  487.4    0    0    5    1    0   46  0.010  0.029  0.000  0.001  0.000  0.000
----------------------------------------------------------------------------------------------------------------------------------------------------------------


*Resource Productivity
 Growing season length: 106 days 

 Precipitation during growing season       477.7 mm[rain]
   Dry Matter Productivity                  2.09 kg[DM]/m3[rain]          =   20.9 kg[DM]/ha per mm[rain]
   Yield Productivity                       0.97 kg[grain yield]/m3[rain] =    9.7 kg[yield]/ha per mm[rain]

 Evapotranspiration during growing season  385.1 mm[ET]
   Dry Matter Productivity                  2.59 kg[DM]/m3[ET]            =   25.9 kg[DM]/ha per mm[ET]
   Yield Productivity                       1.20 kg[grain yield]/m3[ET]   =   12.0 kg[yield]/ha per mm[ET]

 Transpiration during growing season       223.5 mm[EP]
   Dry Matter Productivity                  4.47 kg[DM]/m3[EP]            =   44.7 kg[DM]/ha per mm[EP]
   Yield Productivity                       2.07 kg[grain yield]/m3[EP]   =   20.7 kg[yield]/ha per mm[EP]

 N applied during growing season             60. kg[N applied]/ha
   Dry Matter Productivity                 166.3 kg[DM]/kg[N applied]
   Yield Productivity                       77.2 kg[yield]/kg[N applied]

 N uptake during growing season              119 kg[N uptake]/ha
   Dry Matter Productivity                  83.9 kg[DM]/kg[N uptake]
   Yield Productivity                       38.9 kg[yield]/kg[N uptake]

--------------------------------------------------------------------------------------------------------------

                     Maize YIELD :     4634 kg/ha    [Dry weight] 

**************************************************************************************************************

*DSSAT Cropping System Model Ver. 4.7.5.008 -release  JAN 07, 2021 20:33:24

*RUN   2        : ERiMA DCC1                MZCER047 ETMZmelk    1
 MODEL          : MZCER047 - Maize
 EXPERIMENT     : ETMZmelk SN MELKSSAL
 DATA PATH      : C:\IRI\Python_Dash\ET_DSS_hist\TEST\
 TREATMENT  1   : ERiMA DCC1                MZCER047


 CROP           : Maize            CULTIVAR : MELKASA-early    ECOTYPE :IB0001
 STARTING DATE  : JUN 14 1982
 PLANTING DATE  : JUN 15 1982        PLANTS/m2 :  6.5     ROW SPACING :  75.cm
 WEATHER        : MELK8201
 SOIL           : ETET001_18     TEXTURE : L     -   ET000_18
 SOIL INITIAL C : DEPTH:200cm EXTR. H2O:300.3mm  NO3: 39.6kg/ha  NH4:  2.4kg/ha
 WATER BALANCE  : RAINFED
 IRRIGATION     : NOT IRRIGATED
 NITROGEN BAL.  : SOIL-N & N-UPTAKE SIMULATION; NO N-FIXATION
 N-FERTILIZER   :       60 kg/ha IN     2 APPLICATIONS
 RESIDUE/MANURE : INITIAL :     0 kg/ha ;       0 kg/ha IN     0 APPLICATIONS
 ENVIRONM. OPT. : DAYL=    0.00  SRAD=    0.00  TMAX=    0.00  TMIN=    0.00
                  RAIN=    0.00  CO2 =    0.00  DEW =    0.00  WIND=    0.00
 SIMULATION OPT : WATER   :Y  NITROGEN:Y  N-FIX:N  PHOSPH :N  PESTS  :N
                  PHOTO   :C  ET      :R  INFIL:S  HYDROL :R  SOM    :G
                  CO2     :D  NSWIT   :1  EVAP :S  SOIL   :2  STEMP  :D
 MANAGEMENT OPT : PLANTING:R  IRRIG   :N  FERT :D  RESIDUE:N  HARVEST:M
                  WEATHER :M  TILLAGE :N

*SUMMARY OF SOIL AND GENETIC INPUT PARAMETERS

   SOIL LOWER UPPER   SAT  EXTR  INIT   ROOT   BULK     pH    NO3    NH4    ORG
  DEPTH LIMIT LIMIT    SW    SW    SW   DIST   DENS                          C
   cm   cm3/cm3    cm3/cm3    cm3/cm3         g/cm3         ugN/g  ugN/g     %
-------------------------------------------------------------------------------
  0-  5 0.166 0.260 0.433 0.094 0.231   1.00   1.20   7.90  15.00   0.10   1.50
  5- 15 0.166 0.260 0.433 0.094 0.231   1.00   1.20   7.90  15.00   0.10   1.50
 15- 20 0.166 0.260 0.433 0.094 0.231   1.00   1.20   7.90  15.00   0.10   1.50
 20- 35 0.121 0.264 0.434 0.143 0.221   0.58   1.20   8.00   2.00   0.10   1.48
 35- 50 0.121 0.316 0.466 0.195 0.316   0.10   1.10   8.30   0.00   0.10   1.46
 50- 65 0.121 0.316 0.466 0.195 0.316   0.10   1.10   8.30   0.00   0.10   1.46
 65- 81 0.134 0.304 0.477 0.170 0.304   0.00   1.00   8.50   0.00   0.10   1.40
 81- 97 0.134 0.304 0.477 0.170 0.304   0.00   1.00   8.50   0.00   0.10   1.40
 97-118 0.156 0.305 0.433 0.149 0.305   0.00   1.28   8.60   0.00   0.10   0.98
118-140 0.156 0.305 0.433 0.149 0.305   0.00   1.28   8.60   0.00   0.10   0.98
140-170 0.162 0.298 0.428 0.136 0.298   0.00   1.36   8.50   0.00   0.10   0.78
170-200 0.173 0.314 0.433 0.141 0.314   0.00   1.33   8.30   0.00   0.10   0.78

TOT-200  29.8  59.8  88.9  30.0  58.6  <--cm   -  kg/ha-->   39.6    2.4 272505
SOIL ALBEDO    : 0.13      EVAPORATION LIMIT : 6.00         MIN. FACTOR  : 1.00
RUNOFF CURVE # :81.00      DRAINAGE RATE     : 0.60         FERT. FACTOR : 0.70

 Maize      CULTIVAR :CIMT02-MELKASA-early      ECOTYPE :IB0001
 P1     : 101.50  P2     : 0.7500  P5     : 685.00
 G2     : 375.00  G3     : 11.650  PHINT  : 40.000


*SIMULATED CROP AND SOIL STATUS AT MAIN DEVELOPMENT STAGES

 RUN NO.     2     ERiMA DCC1              

        CROP GROWTH     BIOMASS         LEAF   CROP N     STRESS      STRESS                                           
   DATE  AGE STAGE        kg/ha    LAI   NUM  kg/ha  %   H2O  Nitr Phos1 Phos2  RSTG                                   
 ------  --- ----------   -----  -----  ----  ---  ---  ----  ----  ----  ----  ----                                   
 14 JUN    0 Start Sim        0   0.00   0.0    0  0.0  0.00  0.00  0.00  0.00     7
 15 JUN    0 Sowing           0   0.00   0.0    0  0.0  0.00  0.00  0.00  0.00     8
 16 JUN    1 Germinate        0   0.00   0.0    0  0.0  0.00  0.00  0.00  0.00     9
 21 JUN    6 Emergence       26   0.00   2.0    1  4.4  0.00  0.01  0.00  0.00     1
 28 JUN   13 End Juveni      33   0.07   5.0    1  3.5  0.03  0.00  0.00  0.00     2
  3 JUL   18 Floral Ini     103   0.22   6.9    4  3.9  0.00  0.00  0.00  0.00     3
  4 AUG   50 75% Silkin    2956   1.57  14.8   59  2.0  0.12  0.00  0.00  0.00     4
 18 AUG   64 Beg Gr Fil    4757   1.51  14.8   59  1.2  0.00  0.00  0.00  0.00     5
 26 SEP  103 End Gr Fil    8825   0.69  14.8   98  1.1  0.00  0.00  0.00  0.00     6
 29 SEP  106 Maturity      8825   0.69  14.8   98  1.1  0.00  0.00  0.00  0.00    10
 29 SEP  106 Harvest       8825   0.69  14.8   98  1.1  0.00  0.00  0.00  0.00    10


*MAIN GROWTH AND DEVELOPMENT VARIABLES

@     VARIABLE                                         SIMULATED     MEASURED
      --------                                         ---------     --------
      Anthesis day (dap)                                      50          -99
      Physiological maturity day (dap)                       106          -99
      Yield at harvest maturity (kg [dm]/ha)                4174          -99
      Number at maturity (no/m2)                             919          -99
      Unit wt at maturity (g [dm]/unit)                   0.4543          -99
      Number at maturity (no/unit)                         141.3          -99
      Tops weight at maturity (kg [dm]/ha)                  8825          -99
      By-product produced (stalk) at maturity (kg[dm]/ha    4676          -99
      Leaf area index, maximum                              1.57          -99
      Harvest index at maturity                            0.473          -99
      Grain N at maturity (kg/ha)                             71          -99
      Tops N at maturity (kg/ha)                              98          -99
      Stem N at maturity (kg/ha)                              27          -99
      Grain N at maturity (%)                                1.7          -99
      Tops weight at anthesis (kg [dm]/ha)                  2774          -99
      Tops N at anthesis (kg/ha)                              57          -99
      Leaf number per stem at maturity                     14.76          -99
      Emergence day (dap)                                      6          -99


*ENVIRONMENTAL AND STRESS FACTORS

 |-----Development Phase------|--------------------------------------Environment--------------------------------------|-----------------Stress-----------------|
                              |---------------Average--------------|-----Cumulative-----|--------Count of days--------|          (0=Min, 1=Max Stress)         |
                         Time  Temp  Temp  Temp Solar Photop                Evapo    Pot TMIN TMIN TMAX TMAX TMAX RAIN|----Water----|---Nitrogen--|-Phosphorus-|
                         Span   Max   Min  Mean   Rad  [day]    CO2   Rain  Trans     ET   <    <    >    >    >    >   Photo         Photo         Photo
                         days    øC    øC    øC MJ/m2     hr    ppm     mm     mm     mm  0øC  2øC 30øC 32øC 34øC  0mm  synth Growth  synth Growth  synth Growth
----------------------------------------------------------------------------------------------------------------------------------------------------------------
 Emergence-End Juvenile     7  27.2  15.1  21.1  20.6  12.49  380.0    0.0    6.2   36.6    0    0    0    0    0    0  0.000  0.010  0.002  0.004  0.000  0.000
 End Juvenil-Floral Init    5  27.3  15.3  21.3  20.6  12.48  380.0   19.7   22.7   26.3    0    0    0    0    0    3  0.000  0.031  0.000  0.000  0.000  0.000
 Floral Init-End Lf Grow   32  25.7  15.1  20.4  18.5  12.43  380.0  116.2  106.8  139.7    0    0    1    0    0   16  0.065  0.123  0.000  0.000  0.000  0.000
 End Lf Grth-Beg Grn Fil   14  24.2  15.6  19.9  18.0  12.31  380.0  108.5   56.4   56.6    0    0    0    0    0    8  0.000  0.000  0.000  0.000  0.000  0.000
 Grain Filling Phase       39  25.8  14.8  20.3  21.8  12.11  380.0  137.7  167.2  196.0    0    0    0    0    0    8  0.000  0.000  0.000  0.000  0.000  0.000
   
 Planting to Harvest      106  25.8  15.1  20.4  20.0  12.29  380.0  387.2  371.5  499.1    0    0    2    0    0   36  0.020  0.039  0.000  0.000  0.000  0.000
----------------------------------------------------------------------------------------------------------------------------------------------------------------


*Resource Productivity
 Growing season length: 106 days 

 Precipitation during growing season       387.2 mm[rain]
   Dry Matter Productivity                  2.28 kg[DM]/m3[rain]          =   22.8 kg[DM]/ha per mm[rain]
   Yield Productivity                       1.08 kg[grain yield]/m3[rain] =   10.8 kg[yield]/ha per mm[rain]

 Evapotranspiration during growing season  371.5 mm[ET]
   Dry Matter Productivity                  2.38 kg[DM]/m3[ET]            =   23.8 kg[DM]/ha per mm[ET]
   Yield Productivity                       1.12 kg[grain yield]/m3[ET]   =   11.2 kg[yield]/ha per mm[ET]

 Transpiration during growing season       214.4 mm[EP]
   Dry Matter Productivity                  4.12 kg[DM]/m3[EP]            =   41.2 kg[DM]/ha per mm[EP]
   Yield Productivity                       1.95 kg[grain yield]/m3[EP]   =   19.5 kg[yield]/ha per mm[EP]

 N applied during growing season             60. kg[N applied]/ha
   Dry Matter Productivity                 147.1 kg[DM]/kg[N applied]
   Yield Productivity                       69.6 kg[yield]/kg[N applied]

 N uptake during growing season              109 kg[N uptake]/ha
   Dry Matter Productivity                  81.0 kg[DM]/kg[N uptake]
   Yield Productivity                       38.3 kg[yield]/kg[N uptake]

--------------------------------------------------------------------------------------------------------------

                     Maize YIELD :     4174 kg/ha    [Dry weight] 

**************************************************************************************************************

*DSSAT Cropping System Model Ver. 4.7.5.008 -release  JAN 07, 2021 20:33:24

*RUN   3        : ERiMA DCC1                MZCER047 ETMZmelk    1
 MODEL          : MZCER047 - Maize
 EXPERIMENT     : ETMZmelk SN MELKSSAL
 DATA PATH      : C:\IRI\Python_Dash\ET_DSS_hist\TEST\
 TREATMENT  1   : ERiMA DCC1                MZCER047


 CROP           : Maize            CULTIVAR : MELKASA-early    ECOTYPE :IB0001
 STARTING DATE  : JUN 14 1983
 PLANTING DATE  : JUN 15 1983        PLANTS/m2 :  6.5     ROW SPACING :  75.cm
 WEATHER        : MELK8301
 SOIL           : ETET001_18     TEXTURE : L     -   ET000_18
 SOIL INITIAL C : DEPTH:200cm EXTR. H2O:300.3mm  NO3: 39.6kg/ha  NH4:  2.4kg/ha
 WATER BALANCE  : RAINFED
 IRRIGATION     : NOT IRRIGATED
 NITROGEN BAL.  : SOIL-N & N-UPTAKE SIMULATION; NO N-FIXATION
 N-FERTILIZER   :       60 kg/ha IN     2 APPLICATIONS
 RESIDUE/MANURE : INITIAL :     0 kg/ha ;       0 kg/ha IN     0 APPLICATIONS
 ENVIRONM. OPT. : DAYL=    0.00  SRAD=    0.00  TMAX=    0.00  TMIN=    0.00
                  RAIN=    0.00  CO2 =    0.00  DEW =    0.00  WIND=    0.00
 SIMULATION OPT : WATER   :Y  NITROGEN:Y  N-FIX:N  PHOSPH :N  PESTS  :N
                  PHOTO   :C  ET      :R  INFIL:S  HYDROL :R  SOM    :G
                  CO2     :D  NSWIT   :1  EVAP :S  SOIL   :2  STEMP  :D
 MANAGEMENT OPT : PLANTING:R  IRRIG   :N  FERT :D  RESIDUE:N  HARVEST:M
                  WEATHER :M  TILLAGE :N

*SUMMARY OF SOIL AND GENETIC INPUT PARAMETERS

   SOIL LOWER UPPER   SAT  EXTR  INIT   ROOT   BULK     pH    NO3    NH4    ORG
  DEPTH LIMIT LIMIT    SW    SW    SW   DIST   DENS                          C
   cm   cm3/cm3    cm3/cm3    cm3/cm3         g/cm3         ugN/g  ugN/g     %
-------------------------------------------------------------------------------
  0-  5 0.166 0.260 0.433 0.094 0.231   1.00   1.20   7.90  15.00   0.10   1.50
  5- 15 0.166 0.260 0.433 0.094 0.231   1.00   1.20   7.90  15.00   0.10   1.50
 15- 20 0.166 0.260 0.433 0.094 0.231   1.00   1.20   7.90  15.00   0.10   1.50
 20- 35 0.121 0.264 0.434 0.143 0.221   0.58   1.20   8.00   2.00   0.10   1.48
 35- 50 0.121 0.316 0.466 0.195 0.316   0.10   1.10   8.30   0.00   0.10   1.46
 50- 65 0.121 0.316 0.466 0.195 0.316   0.10   1.10   8.30   0.00   0.10   1.46
 65- 81 0.134 0.304 0.477 0.170 0.304   0.00   1.00   8.50   0.00   0.10   1.40
 81- 97 0.134 0.304 0.477 0.170 0.304   0.00   1.00   8.50   0.00   0.10   1.40
 97-118 0.156 0.305 0.433 0.149 0.305   0.00   1.28   8.60   0.00   0.10   0.98
118-140 0.156 0.305 0.433 0.149 0.305   0.00   1.28   8.60   0.00   0.10   0.98
140-170 0.162 0.298 0.428 0.136 0.298   0.00   1.36   8.50   0.00   0.10   0.78
170-200 0.173 0.314 0.433 0.141 0.314   0.00   1.33   8.30   0.00   0.10   0.78

TOT-200  29.8  59.8  88.9  30.0  58.6  <--cm   -  kg/ha-->   39.6    2.4 272505
SOIL ALBEDO    : 0.13      EVAPORATION LIMIT : 6.00         MIN. FACTOR  : 1.00
RUNOFF CURVE # :81.00      DRAINAGE RATE     : 0.60         FERT. FACTOR : 0.70

 Maize      CULTIVAR :CIMT02-MELKASA-early      ECOTYPE :IB0001
 P1     : 101.50  P2     : 0.7500  P5     : 685.00
 G2     : 375.00  G3     : 11.650  PHINT  : 40.000


*SIMULATED CROP AND SOIL STATUS AT MAIN DEVELOPMENT STAGES

 RUN NO.     3     ERiMA DCC1              

        CROP GROWTH     BIOMASS         LEAF   CROP N     STRESS      STRESS                                           
   DATE  AGE STAGE        kg/ha    LAI   NUM  kg/ha  %   H2O  Nitr Phos1 Phos2  RSTG                                   
 ------  --- ----------   -----  -----  ----  ---  ---  ----  ----  ----  ----  ----                                   
 14 JUN    0 Start Sim        0   0.00   0.0    0  0.0  0.00  0.00  0.00  0.00     7
 15 JUN    0 Sowing           0   0.00   0.0    0  0.0  0.00  0.00  0.00  0.00     8
 16 JUN    1 Germinate        0   0.00   0.0    0  0.0  0.00  0.00  0.00  0.00     9
 21 JUN    6 Emergence       26   0.00   2.1    1  4.4  0.00  0.01  0.00  0.00     1
 27 JUN   12 End Juveni      33   0.07   4.9    1  3.5  0.00  0.00  0.00  0.00     2
  2 JUL   17 Floral Ini     102   0.22   6.8    4  4.0  0.00  0.00  0.00  0.00     3
 31 JUL   46 75% Silkin    3446   1.82  14.6   68  2.0  0.01  0.00  0.00  0.00     4
 14 AUG   60 Beg Gr Fil    5589   1.70  14.6   70  1.2  0.00  0.00  0.00  0.00     5
 22 SEP   99 End Gr Fil   10023   0.75  14.6  108  1.1  0.00  0.00  0.00  0.00     6
 24 SEP  101 Maturity     10023   0.75  14.6  108  1.1  0.00  0.00  0.00  0.00    10
 24 SEP  101 Harvest      10023   0.75  14.6  108  1.1  0.00  0.00  0.00  0.00    10


*MAIN GROWTH AND DEVELOPMENT VARIABLES

@     VARIABLE                                         SIMULATED     MEASURED
      --------                                         ---------     --------
      Anthesis day (dap)                                      46          -99
      Physiological maturity day (dap)                       101          -99
      Yield at harvest maturity (kg [dm]/ha)                4573          -99
      Number at maturity (no/m2)                            1006          -99
      Unit wt at maturity (g [dm]/unit)                   0.4543          -99
      Number at maturity (no/unit)                         154.8          -99
      Tops weight at maturity (kg [dm]/ha)                 10023          -99
      By-product produced (stalk) at maturity (kg[dm]/ha    5480          -99
      Leaf area index, maximum                              1.91          -99
      Harvest index at maturity                            0.456          -99
      Grain N at maturity (kg/ha)                             78          -99
      Tops N at maturity (kg/ha)                             108          -99
      Stem N at maturity (kg/ha)                              31          -99
      Grain N at maturity (%)                                1.7          -99
      Tops weight at anthesis (kg [dm]/ha)                  3321          -99
      Tops N at anthesis (kg/ha)                              68          -99
      Leaf number per stem at maturity                     14.60          -99
      Emergence day (dap)                                      6          -99


*ENVIRONMENTAL AND STRESS FACTORS

 |-----Development Phase------|--------------------------------------Environment--------------------------------------|-----------------Stress-----------------|
                              |---------------Average--------------|-----Cumulative-----|--------Count of days--------|          (0=Min, 1=Max Stress)         |
                         Time  Temp  Temp  Temp Solar Photop                Evapo    Pot TMIN TMIN TMAX TMAX TMAX RAIN|----Water----|---Nitrogen--|-Phosphorus-|
                         Span   Max   Min  Mean   Rad  [day]    CO2   Rain  Trans     ET   <    <    >    >    >    >   Photo         Photo         Photo
                         days    øC    øC    øC MJ/m2     hr    ppm     mm     mm     mm  0øC  2øC 30øC 32øC 34øC  0mm  synth Growth  synth Growth  synth Growth
----------------------------------------------------------------------------------------------------------------------------------------------------------------
 Emergence-End Juvenile     6  29.0  15.1  22.1  21.7  12.49  380.0    0.0    5.4   33.8    0    0    2    0    0    0  0.000  0.000  0.002  0.005  0.000  0.000
 End Juvenil-Floral Init    5  27.2  15.8  21.5  19.5  12.48  380.0   29.0   21.1   25.1    0    0    1    0    0    2  0.000  0.000  0.000  0.000  0.000  0.000
 Floral Init-End Lf Grow   29  27.1  15.8  21.5  20.5  12.44  380.0  124.0  111.9  142.5    0    0    5    0    0   14  0.000  0.010  0.000  0.000  0.000  0.000
 End Lf Grth-Beg Grn Fil   14  25.4  16.2  20.8  19.1  12.33  380.0   47.9   57.1   60.6    0    0    0    0    0    8  0.000  0.000  0.000  0.000  0.000  0.000
 Grain Filling Phase       39  25.1  15.5  20.3  18.3  12.15  380.0  230.6  161.9  163.5    0    0    0    0    0   26  0.000  0.000  0.000  0.000  0.000  0.000
   
 Planting to Harvest      101  26.2  15.7  21.0  19.5  12.31  380.0  447.8  381.6  467.1    0    0   10    0    0   53  0.000  0.003  0.000  0.000  0.000  0.000
----------------------------------------------------------------------------------------------------------------------------------------------------------------


*Resource Productivity
 Growing season length: 101 days 

 Precipitation during growing season       447.8 mm[rain]
   Dry Matter Productivity                  2.24 kg[DM]/m3[rain]          =   22.4 kg[DM]/ha per mm[rain]
   Yield Productivity                       1.02 kg[grain yield]/m3[rain] =   10.2 kg[yield]/ha per mm[rain]

 Evapotranspiration during growing season  381.6 mm[ET]
   Dry Matter Productivity                  2.63 kg[DM]/m3[ET]            =   26.3 kg[DM]/ha per mm[ET]
   Yield Productivity                       1.20 kg[grain yield]/m3[ET]   =   12.0 kg[yield]/ha per mm[ET]

 Transpiration during growing season       215.4 mm[EP]
   Dry Matter Productivity                  4.65 kg[DM]/m3[EP]            =   46.5 kg[DM]/ha per mm[EP]
   Yield Productivity                       2.12 kg[grain yield]/m3[EP]   =   21.2 kg[yield]/ha per mm[EP]

 N applied during growing season             60. kg[N applied]/ha
   Dry Matter Productivity                 167.0 kg[DM]/kg[N applied]
   Yield Productivity                       76.2 kg[yield]/kg[N applied]

 N uptake during growing season              117 kg[N uptake]/ha
   Dry Matter Productivity                  85.7 kg[DM]/kg[N uptake]
   Yield Productivity                       39.1 kg[yield]/kg[N uptake]

--------------------------------------------------------------------------------------------------------------

                     Maize YIELD :     4573 kg/ha    [Dry weight] 

**************************************************************************************************************

*DSSAT Cropping System Model Ver. 4.7.5.008 -release  JAN 07, 2021 20:33:24

*RUN   4        : ERiMA DCC1                MZCER047 ETMZmelk    1
 MODEL          : MZCER047 - Maize
 EXPERIMENT     : ETMZmelk SN MELKSSAL
 DATA PATH      : C:\IRI\Python_Dash\ET_DSS_hist\TEST\
 TREATMENT  1   : ERiMA DCC1                MZCER047


 CROP           : Maize            CULTIVAR : MELKASA-early    ECOTYPE :IB0001
 STARTING DATE  : JUN 13 1984
 PLANTING DATE  : JUN 14 1984        PLANTS/m2 :  6.5     ROW SPACING :  75.cm
 WEATHER        : MELK8401
 SOIL           : ETET001_18     TEXTURE : L     -   ET000_18
 SOIL INITIAL C : DEPTH:200cm EXTR. H2O:300.3mm  NO3: 39.6kg/ha  NH4:  2.4kg/ha
 WATER BALANCE  : RAINFED
 IRRIGATION     : NOT IRRIGATED
 NITROGEN BAL.  : SOIL-N & N-UPTAKE SIMULATION; NO N-FIXATION
 N-FERTILIZER   :       60 kg/ha IN     2 APPLICATIONS
 RESIDUE/MANURE : INITIAL :     0 kg/ha ;       0 kg/ha IN     0 APPLICATIONS
 ENVIRONM. OPT. : DAYL=    0.00  SRAD=    0.00  TMAX=    0.00  TMIN=    0.00
                  RAIN=    0.00  CO2 =    0.00  DEW =    0.00  WIND=    0.00
 SIMULATION OPT : WATER   :Y  NITROGEN:Y  N-FIX:N  PHOSPH :N  PESTS  :N
                  PHOTO   :C  ET      :R  INFIL:S  HYDROL :R  SOM    :G
                  CO2     :D  NSWIT   :1  EVAP :S  SOIL   :2  STEMP  :D
 MANAGEMENT OPT : PLANTING:R  IRRIG   :N  FERT :D  RESIDUE:N  HARVEST:M
                  WEATHER :M  TILLAGE :N

*SUMMARY OF SOIL AND GENETIC INPUT PARAMETERS

   SOIL LOWER UPPER   SAT  EXTR  INIT   ROOT   BULK     pH    NO3    NH4    ORG
  DEPTH LIMIT LIMIT    SW    SW    SW   DIST   DENS                          C
   cm   cm3/cm3    cm3/cm3    cm3/cm3         g/cm3         ugN/g  ugN/g     %
-------------------------------------------------------------------------------
  0-  5 0.166 0.260 0.433 0.094 0.231   1.00   1.20   7.90  15.00   0.10   1.50
  5- 15 0.166 0.260 0.433 0.094 0.231   1.00   1.20   7.90  15.00   0.10   1.50
 15- 20 0.166 0.260 0.433 0.094 0.231   1.00   1.20   7.90  15.00   0.10   1.50
 20- 35 0.121 0.264 0.434 0.143 0.221   0.58   1.20   8.00   2.00   0.10   1.48
 35- 50 0.121 0.316 0.466 0.195 0.316   0.10   1.10   8.30   0.00   0.10   1.46
 50- 65 0.121 0.316 0.466 0.195 0.316   0.10   1.10   8.30   0.00   0.10   1.46
 65- 81 0.134 0.304 0.477 0.170 0.304   0.00   1.00   8.50   0.00   0.10   1.40
 81- 97 0.134 0.304 0.477 0.170 0.304   0.00   1.00   8.50   0.00   0.10   1.40
 97-118 0.156 0.305 0.433 0.149 0.305   0.00   1.28   8.60   0.00   0.10   0.98
118-140 0.156 0.305 0.433 0.149 0.305   0.00   1.28   8.60   0.00   0.10   0.98
140-170 0.162 0.298 0.428 0.136 0.298   0.00   1.36   8.50   0.00   0.10   0.78
170-200 0.173 0.314 0.433 0.141 0.314   0.00   1.33   8.30   0.00   0.10   0.78

TOT-200  29.8  59.8  88.9  30.0  58.6  <--cm   -  kg/ha-->   39.6    2.4 272505
SOIL ALBEDO    : 0.13      EVAPORATION LIMIT : 6.00         MIN. FACTOR  : 1.00
RUNOFF CURVE # :81.00      DRAINAGE RATE     : 0.60         FERT. FACTOR : 0.70

 Maize      CULTIVAR :CIMT02-MELKASA-early      ECOTYPE :IB0001
 P1     : 101.50  P2     : 0.7500  P5     : 685.00
 G2     : 375.00  G3     : 11.650  PHINT  : 40.000


*SIMULATED CROP AND SOIL STATUS AT MAIN DEVELOPMENT STAGES

 RUN NO.     4     ERiMA DCC1              

        CROP GROWTH     BIOMASS         LEAF   CROP N     STRESS      STRESS                                           
   DATE  AGE STAGE        kg/ha    LAI   NUM  kg/ha  %   H2O  Nitr Phos1 Phos2  RSTG                                   
 ------  --- ----------   -----  -----  ----  ---  ---  ----  ----  ----  ----  ----                                   
 13 JUN    0 Start Sim        0   0.00   0.0    0  0.0  0.00  0.00  0.00  0.00     7
 14 JUN    0 Sowing           0   0.00   0.0    0  0.0  0.00  0.00  0.00  0.00     8
 15 JUN    1 Germinate        0   0.00   0.0    0  0.0  0.00  0.00  0.00  0.00     9
 20 JUN    6 Emergence       26   0.00   2.0    1  4.4  0.00  0.01  0.00  0.00     1
 27 JUN   13 End Juveni      32   0.07   4.9    1  3.5  0.00  0.00  0.00  0.00     2
  2 JUL   18 Floral Ini      91   0.20   6.6    4  3.9  0.00  0.00  0.00  0.00     3
  3 AUG   50 75% Silkin    3602   1.84  14.3   70  1.9  0.00  0.00  0.00  0.00     4
 17 AUG   64 Beg Gr Fil    6012   1.72  14.3   70  1.2  0.00  0.00  0.00  0.00     5
 26 SEP  104 End Gr Fil   10907   0.75  14.3  115  1.1  0.08  0.00  0.00  0.00     6
 28 SEP  106 Maturity     10907   0.75  14.3  115  1.1  0.00  0.04  0.00  0.00    10
 28 SEP  106 Harvest      10907   0.75  14.3  115  1.1  0.00  0.00  0.00  0.00    10


*MAIN GROWTH AND DEVELOPMENT VARIABLES

@     VARIABLE                                         SIMULATED     MEASURED
      --------                                         ---------     --------
      Anthesis day (dap)                                      50          -99
      Physiological maturity day (dap)                       106          -99
      Yield at harvest maturity (kg [dm]/ha)                5023          -99
      Number at maturity (no/m2)                            1097          -99
      Unit wt at maturity (g [dm]/unit)                   0.4577          -99
      Number at maturity (no/unit)                         168.8          -99
      Tops weight at maturity (kg [dm]/ha)                 10907          -99
      By-product produced (stalk) at maturity (kg[dm]/ha    5914          -99
      Leaf area index, maximum                              1.93          -99
      Harvest index at maturity                            0.461          -99
      Grain N at maturity (kg/ha)                             86          -99
      Tops N at maturity (kg/ha)                             115          -99
      Stem N at maturity (kg/ha)                              29          -99
      Grain N at maturity (%)                                1.7          -99
      Tops weight at anthesis (kg [dm]/ha)                  3393          -99
      Tops N at anthesis (kg/ha)                              67          -99
      Leaf number per stem at maturity                     14.32          -99
      Emergence day (dap)                                      6          -99


*ENVIRONMENTAL AND STRESS FACTORS

 |-----Development Phase------|--------------------------------------Environment--------------------------------------|-----------------Stress-----------------|
                              |---------------Average--------------|-----Cumulative-----|--------Count of days--------|          (0=Min, 1=Max Stress)         |
                         Time  Temp  Temp  Temp Solar Photop                Evapo    Pot TMIN TMIN TMAX TMAX TMAX RAIN|----Water----|---Nitrogen--|-Phosphorus-|
                         Span   Max   Min  Mean   Rad  [day]    CO2   Rain  Trans     ET   <    <    >    >    >    >   Photo         Photo         Photo
                         days    øC    øC    øC MJ/m2     hr    ppm     mm     mm     mm  0øC  2øC 30øC 32øC 34øC  0mm  synth Growth  synth Growth  synth Growth
----------------------------------------------------------------------------------------------------------------------------------------------------------------
 Emergence-End Juvenile     7  25.8  15.5  20.7  20.2  12.49  380.0   24.4   10.1   35.3    0    0    0    0    0    4  0.000  0.000  0.002  0.005  0.000  0.000
 End Juvenil-Floral Init    5  25.7  14.4  20.0  20.4  12.48  380.0    5.7   21.8   25.5    0    0    0    0    0    1  0.000  0.000  0.000  0.000  0.000  0.000
 Floral Init-End Lf Grow   32  24.9  14.9  19.9  20.5  12.43  380.0  125.3  110.6  152.0    0    0    0    0    0   13  0.000  0.005  0.000  0.000  0.000  0.000
 End Lf Grth-Beg Grn Fil   14  25.0  15.4  20.2  21.6  12.31  380.0   85.6   67.4   67.6    0    0    0    0    0    8  0.000  0.000  0.000  0.000  0.000  0.000
 Grain Filling Phase       40  25.7  14.7  20.2  21.4  12.11  380.0   87.6  162.3  194.2    0    0    0    0    0   13  0.032  0.077  0.000  0.000  0.000  0.000
   
 Planting to Harvest      106  25.4  14.9  20.2  21.0  12.29  380.0  328.6  382.4  515.1    0    0    0    0    0   39  0.012  0.030  0.000  0.001  0.000  0.000
----------------------------------------------------------------------------------------------------------------------------------------------------------------


*Resource Productivity
 Growing season length: 106 days 

 Precipitation during growing season       328.6 mm[rain]
   Dry Matter Productivity                  3.32 kg[DM]/m3[rain]          =   33.2 kg[DM]/ha per mm[rain]
   Yield Productivity                       1.53 kg[grain yield]/m3[rain] =   15.3 kg[yield]/ha per mm[rain]

 Evapotranspiration during growing season  382.4 mm[ET]
   Dry Matter Productivity                  2.85 kg[DM]/m3[ET]            =   28.5 kg[DM]/ha per mm[ET]
   Yield Productivity                       1.31 kg[grain yield]/m3[ET]   =   13.1 kg[yield]/ha per mm[ET]

 Transpiration during growing season       239.0 mm[EP]
   Dry Matter Productivity                  4.56 kg[DM]/m3[EP]            =   45.6 kg[DM]/ha per mm[EP]
   Yield Productivity                       2.10 kg[grain yield]/m3[EP]   =   21.0 kg[yield]/ha per mm[EP]

 N applied during growing season             60. kg[N applied]/ha
   Dry Matter Productivity                 181.8 kg[DM]/kg[N applied]
   Yield Productivity                       83.7 kg[yield]/kg[N applied]

 N uptake during growing season              126 kg[N uptake]/ha
   Dry Matter Productivity                  86.6 kg[DM]/kg[N uptake]
   Yield Productivity                       39.9 kg[yield]/kg[N uptake]

--------------------------------------------------------------------------------------------------------------

                     Maize YIELD :     5023 kg/ha    [Dry weight] 

**************************************************************************************************************

*DSSAT Cropping System Model Ver. 4.7.5.008 -release  JAN 07, 2021 20:33:24

*RUN   5        : ERiMA DCC1                MZCER047 ETMZmelk    1
 MODEL          : MZCER047 - Maize
 EXPERIMENT     : ETMZmelk SN MELKSSAL
 DATA PATH      : C:\IRI\Python_Dash\ET_DSS_hist\TEST\
 TREATMENT  1   : ERiMA DCC1                MZCER047


 CROP           : Maize            CULTIVAR : MELKASA-early    ECOTYPE :IB0001
 STARTING DATE  : JUN 14 1985
 PLANTING DATE  : JUN 15 1985        PLANTS/m2 :  6.5     ROW SPACING :  75.cm
 WEATHER        : MELK8501
 SOIL           : ETET001_18     TEXTURE : L     -   ET000_18
 SOIL INITIAL C : DEPTH:200cm EXTR. H2O:300.3mm  NO3: 39.6kg/ha  NH4:  2.4kg/ha
 WATER BALANCE  : RAINFED
 IRRIGATION     : NOT IRRIGATED
 NITROGEN BAL.  : SOIL-N & N-UPTAKE SIMULATION; NO N-FIXATION
 N-FERTILIZER   :       60 kg/ha IN     2 APPLICATIONS
 RESIDUE/MANURE : INITIAL :     0 kg/ha ;       0 kg/ha IN     0 APPLICATIONS
 ENVIRONM. OPT. : DAYL=    0.00  SRAD=    0.00  TMAX=    0.00  TMIN=    0.00
                  RAIN=    0.00  CO2 =    0.00  DEW =    0.00  WIND=    0.00
 SIMULATION OPT : WATER   :Y  NITROGEN:Y  N-FIX:N  PHOSPH :N  PESTS  :N
                  PHOTO   :C  ET      :R  INFIL:S  HYDROL :R  SOM    :G
                  CO2     :D  NSWIT   :1  EVAP :S  SOIL   :2  STEMP  :D
 MANAGEMENT OPT : PLANTING:R  IRRIG   :N  FERT :D  RESIDUE:N  HARVEST:M
                  WEATHER :M  TILLAGE :N

*SUMMARY OF SOIL AND GENETIC INPUT PARAMETERS

   SOIL LOWER UPPER   SAT  EXTR  INIT   ROOT   BULK     pH    NO3    NH4    ORG
  DEPTH LIMIT LIMIT    SW    SW    SW   DIST   DENS                          C
   cm   cm3/cm3    cm3/cm3    cm3/cm3         g/cm3         ugN/g  ugN/g     %
-------------------------------------------------------------------------------
  0-  5 0.166 0.260 0.433 0.094 0.231   1.00   1.20   7.90  15.00   0.10   1.50
  5- 15 0.166 0.260 0.433 0.094 0.231   1.00   1.20   7.90  15.00   0.10   1.50
 15- 20 0.166 0.260 0.433 0.094 0.231   1.00   1.20   7.90  15.00   0.10   1.50
 20- 35 0.121 0.264 0.434 0.143 0.221   0.58   1.20   8.00   2.00   0.10   1.48
 35- 50 0.121 0.316 0.466 0.195 0.316   0.10   1.10   8.30   0.00   0.10   1.46
 50- 65 0.121 0.316 0.466 0.195 0.316   0.10   1.10   8.30   0.00   0.10   1.46
 65- 81 0.134 0.304 0.477 0.170 0.304   0.00   1.00   8.50   0.00   0.10   1.40
 81- 97 0.134 0.304 0.477 0.170 0.304   0.00   1.00   8.50   0.00   0.10   1.40
 97-118 0.156 0.305 0.433 0.149 0.305   0.00   1.28   8.60   0.00   0.10   0.98
118-140 0.156 0.305 0.433 0.149 0.305   0.00   1.28   8.60   0.00   0.10   0.98
140-170 0.162 0.298 0.428 0.136 0.298   0.00   1.36   8.50   0.00   0.10   0.78
170-200 0.173 0.314 0.433 0.141 0.314   0.00   1.33   8.30   0.00   0.10   0.78

TOT-200  29.8  59.8  88.9  30.0  58.6  <--cm   -  kg/ha-->   39.6    2.4 272505
SOIL ALBEDO    : 0.13      EVAPORATION LIMIT : 6.00         MIN. FACTOR  : 1.00
RUNOFF CURVE # :81.00      DRAINAGE RATE     : 0.60         FERT. FACTOR : 0.70

 Maize      CULTIVAR :CIMT02-MELKASA-early      ECOTYPE :IB0001
 P1     : 101.50  P2     : 0.7500  P5     : 685.00
 G2     : 375.00  G3     : 11.650  PHINT  : 40.000


*SIMULATED CROP AND SOIL STATUS AT MAIN DEVELOPMENT STAGES

 RUN NO.     5     ERiMA DCC1              

        CROP GROWTH     BIOMASS         LEAF   CROP N     STRESS      STRESS                                           
   DATE  AGE STAGE        kg/ha    LAI   NUM  kg/ha  %   H2O  Nitr Phos1 Phos2  RSTG                                   
 ------  --- ----------   -----  -----  ----  ---  ---  ----  ----  ----  ----  ----                                   
 14 JUN    0 Start Sim        0   0.00   0.0    0  0.0  0.00  0.00  0.00  0.00     7
 15 JUN    0 Sowing           0   0.00   0.0    0  0.0  0.00  0.00  0.00  0.00     8
 16 JUN    1 Germinate        0   0.00   0.0    0  0.0  0.00  0.00  0.00  0.00     9
 21 JUN    6 Emergence       26   0.00   2.0    1  4.4  0.00  0.01  0.00  0.00     1
 28 JUN   13 End Juveni      33   0.07   4.9    1  3.5  0.00  0.00  0.00  0.00     2
  3 JUL   18 Floral Ini      89   0.19   6.6    3  3.9  0.00  0.00  0.00  0.00     3
  6 AUG   52 75% Silkin    3472   1.79  14.2   68  1.9  0.00  0.00  0.00  0.00     4
 21 AUG   67 Beg Gr Fil    5900   1.68  14.2   68  1.1  0.00  0.00  0.00  0.00     5
  2 OCT  109 End Gr Fil   10936   0.74  14.2  100  0.9  0.00  0.13  0.00  0.00     6
  4 OCT  111 Maturity     10936   0.74  14.2  100  0.9  0.00  0.59  0.00  0.00    10
  4 OCT  111 Harvest      10936   0.74  14.2  100  0.9  0.00  0.00  0.00  0.00    10


*MAIN GROWTH AND DEVELOPMENT VARIABLES

@     VARIABLE                                         SIMULATED     MEASURED
      --------                                         ---------     --------
      Anthesis day (dap)                                      52          -99
      Physiological maturity day (dap)                       111          -99
      Yield at harvest maturity (kg [dm]/ha)                5188          -99
      Number at maturity (no/m2)                            1060          -99
      Unit wt at maturity (g [dm]/unit)                   0.4893          -99
      Number at maturity (no/unit)                         163.1          -99
      Tops weight at maturity (kg [dm]/ha)                 10936          -99
      By-product produced (stalk) at maturity (kg[dm]/ha    5777          -99
      Leaf area index, maximum                              1.89          -99
      Harvest index at maturity                            0.474          -99
      Grain N at maturity (kg/ha)                             81          -99
      Tops N at maturity (kg/ha)                             100          -99
      Stem N at maturity (kg/ha)                              20          -99
      Grain N at maturity (%)                                1.6          -99
      Tops weight at anthesis (kg [dm]/ha)                  3252          -99
      Tops N at anthesis (kg/ha)                              64          -99
      Leaf number per stem at maturity                     14.16          -99
      Emergence day (dap)                                      6          -99


*ENVIRONMENTAL AND STRESS FACTORS

 |-----Development Phase------|--------------------------------------Environment--------------------------------------|-----------------Stress-----------------|
                              |---------------Average--------------|-----Cumulative-----|--------Count of days--------|          (0=Min, 1=Max Stress)         |
                         Time  Temp  Temp  Temp Solar Photop                Evapo    Pot TMIN TMIN TMAX TMAX TMAX RAIN|----Water----|---Nitrogen--|-Phosphorus-|
                         Span   Max   Min  Mean   Rad  [day]    CO2   Rain  Trans     ET   <    <    >    >    >    >   Photo         Photo         Photo
                         days    øC    øC    øC MJ/m2     hr    ppm     mm     mm     mm  0øC  2øC 30øC 32øC 34øC  0mm  synth Growth  synth Growth  synth Growth
----------------------------------------------------------------------------------------------------------------------------------------------------------------
 Emergence-End Juvenile     7  26.6  14.5  20.6  20.9  12.49  380.0   21.7   13.9   36.7    0    0    0    0    0    3  0.000  0.000  0.002  0.005  0.000  0.000
 End Juvenil-Floral Init    5  25.6  13.9  19.8  21.3  12.48  380.0    0.0   15.1   26.4    0    0    0    0    0    0  0.000  0.000  0.000  0.000  0.000  0.000
 Floral Init-End Lf Grow   34  24.3  14.3  19.3  18.7  12.42  380.0  313.3  145.5  145.9    0    0    0    0    0   21  0.000  0.000  0.000  0.000  0.000  0.000
 End Lf Grth-Beg Grn Fil   15  24.3  14.3  19.3  20.8  12.29  380.0  119.3   68.5   68.8    0    0    0    0    0    6  0.000  0.000  0.000  0.000  0.000  0.000
 Grain Filling Phase       42  24.9  14.1  19.5  21.0  12.08  380.0  140.8  179.2  198.5    0    0    0    0    0   11  0.000  0.000  0.047  0.114  0.000  0.000
   
 Planting to Harvest      111  24.9  14.2  19.6  20.2  12.28  380.0  595.1  438.1  516.7    0    0    1    0    0   41  0.000  0.000  0.023  0.054  0.000  0.000
----------------------------------------------------------------------------------------------------------------------------------------------------------------


*Resource Productivity
 Growing season length: 111 days 

 Precipitation during growing season       595.1 mm[rain]
   Dry Matter Productivity                  1.84 kg[DM]/m3[rain]          =   18.4 kg[DM]/ha per mm[rain]
   Yield Productivity                       0.87 kg[grain yield]/m3[rain] =    8.7 kg[yield]/ha per mm[rain]

 Evapotranspiration during growing season  438.1 mm[ET]
   Dry Matter Productivity                  2.50 kg[DM]/m3[ET]            =   25.0 kg[DM]/ha per mm[ET]
   Yield Productivity                       1.18 kg[grain yield]/m3[ET]   =   11.8 kg[yield]/ha per mm[ET]

 Transpiration during growing season       241.0 mm[EP]
   Dry Matter Productivity                  4.54 kg[DM]/m3[EP]            =   45.4 kg[DM]/ha per mm[EP]
   Yield Productivity                       2.15 kg[grain yield]/m3[EP]   =   21.5 kg[yield]/ha per mm[EP]

 N applied during growing season             60. kg[N applied]/ha
   Dry Matter Productivity                 182.3 kg[DM]/kg[N applied]
   Yield Productivity                       86.5 kg[yield]/kg[N applied]

 N uptake during growing season              111 kg[N uptake]/ha
   Dry Matter Productivity                  98.5 kg[DM]/kg[N uptake]
   Yield Productivity                       46.7 kg[yield]/kg[N uptake]

--------------------------------------------------------------------------------------------------------------

                     Maize YIELD :     5188 kg/ha    [Dry weight] 

**************************************************************************************************************

*DSSAT Cropping System Model Ver. 4.7.5.008 -release  JAN 07, 2021 20:33:24

*RUN   6        : ERiMA DCC1                MZCER047 ETMZmelk    1
 MODEL          : MZCER047 - Maize
 EXPERIMENT     : ETMZmelk SN MELKSSAL
 DATA PATH      : C:\IRI\Python_Dash\ET_DSS_hist\TEST\
 TREATMENT  1   : ERiMA DCC1                MZCER047


 CROP           : Maize            CULTIVAR : MELKASA-early    ECOTYPE :IB0001
 STARTING DATE  : JUN 14 1986
 PLANTING DATE  : JUN 15 1986        PLANTS/m2 :  6.5     ROW SPACING :  75.cm
 WEATHER        : MELK8601
 SOIL           : ETET001_18     TEXTURE : L     -   ET000_18
 SOIL INITIAL C : DEPTH:200cm EXTR. H2O:300.3mm  NO3: 39.6kg/ha  NH4:  2.4kg/ha
 WATER BALANCE  : RAINFED
 IRRIGATION     : NOT IRRIGATED
 NITROGEN BAL.  : SOIL-N & N-UPTAKE SIMULATION; NO N-FIXATION
 N-FERTILIZER   :       60 kg/ha IN     2 APPLICATIONS
 RESIDUE/MANURE : INITIAL :     0 kg/ha ;       0 kg/ha IN     0 APPLICATIONS
 ENVIRONM. OPT. : DAYL=    0.00  SRAD=    0.00  TMAX=    0.00  TMIN=    0.00
                  RAIN=    0.00  CO2 =    0.00  DEW =    0.00  WIND=    0.00
 SIMULATION OPT : WATER   :Y  NITROGEN:Y  N-FIX:N  PHOSPH :N  PESTS  :N
                  PHOTO   :C  ET      :R  INFIL:S  HYDROL :R  SOM    :G
                  CO2     :D  NSWIT   :1  EVAP :S  SOIL   :2  STEMP  :D
 MANAGEMENT OPT : PLANTING:R  IRRIG   :N  FERT :D  RESIDUE:N  HARVEST:M
                  WEATHER :M  TILLAGE :N

*SUMMARY OF SOIL AND GENETIC INPUT PARAMETERS

   SOIL LOWER UPPER   SAT  EXTR  INIT   ROOT   BULK     pH    NO3    NH4    ORG
  DEPTH LIMIT LIMIT    SW    SW    SW   DIST   DENS                          C
   cm   cm3/cm3    cm3/cm3    cm3/cm3         g/cm3         ugN/g  ugN/g     %
-------------------------------------------------------------------------------
  0-  5 0.166 0.260 0.433 0.094 0.231   1.00   1.20   7.90  15.00   0.10   1.50
  5- 15 0.166 0.260 0.433 0.094 0.231   1.00   1.20   7.90  15.00   0.10   1.50
 15- 20 0.166 0.260 0.433 0.094 0.231   1.00   1.20   7.90  15.00   0.10   1.50
 20- 35 0.121 0.264 0.434 0.143 0.221   0.58   1.20   8.00   2.00   0.10   1.48
 35- 50 0.121 0.316 0.466 0.195 0.316   0.10   1.10   8.30   0.00   0.10   1.46
 50- 65 0.121 0.316 0.466 0.195 0.316   0.10   1.10   8.30   0.00   0.10   1.46
 65- 81 0.134 0.304 0.477 0.170 0.304   0.00   1.00   8.50   0.00   0.10   1.40
 81- 97 0.134 0.304 0.477 0.170 0.304   0.00   1.00   8.50   0.00   0.10   1.40
 97-118 0.156 0.305 0.433 0.149 0.305   0.00   1.28   8.60   0.00   0.10   0.98
118-140 0.156 0.305 0.433 0.149 0.305   0.00   1.28   8.60   0.00   0.10   0.98
140-170 0.162 0.298 0.428 0.136 0.298   0.00   1.36   8.50   0.00   0.10   0.78
170-200 0.173 0.314 0.433 0.141 0.314   0.00   1.33   8.30   0.00   0.10   0.78

TOT-200  29.8  59.8  88.9  30.0  58.6  <--cm   -  kg/ha-->   39.6    2.4 272505
SOIL ALBEDO    : 0.13      EVAPORATION LIMIT : 6.00         MIN. FACTOR  : 1.00
RUNOFF CURVE # :81.00      DRAINAGE RATE     : 0.60         FERT. FACTOR : 0.70

 Maize      CULTIVAR :CIMT02-MELKASA-early      ECOTYPE :IB0001
 P1     : 101.50  P2     : 0.7500  P5     : 685.00
 G2     : 375.00  G3     : 11.650  PHINT  : 40.000


*SIMULATED CROP AND SOIL STATUS AT MAIN DEVELOPMENT STAGES

 RUN NO.     6     ERiMA DCC1              

        CROP GROWTH     BIOMASS         LEAF   CROP N     STRESS      STRESS                                           
   DATE  AGE STAGE        kg/ha    LAI   NUM  kg/ha  %   H2O  Nitr Phos1 Phos2  RSTG                                   
 ------  --- ----------   -----  -----  ----  ---  ---  ----  ----  ----  ----  ----                                   
 14 JUN    0 Start Sim        0   0.00   0.0    0  0.0  0.00  0.00  0.00  0.00     7
 15 JUN    0 Sowing           0   0.00   0.0    0  0.0  0.00  0.00  0.00  0.00     8
 16 JUN    1 Germinate        0   0.00   0.0    0  0.0  0.00  0.00  0.00  0.00     9
 21 JUN    6 Emergence       26   0.00   2.0    1  4.4  0.00  0.01  0.00  0.00     1
 29 JUN   14 End Juveni      38   0.08   5.2    1  3.2  0.00  0.00  0.00  0.00     2
  4 JUL   19 Floral Ini     106   0.23   6.9    4  3.9  0.00  0.00  0.00  0.00     3
  6 AUG   52 75% Silkin    3721   1.90  14.8   70  1.9  0.00  0.00  0.00  0.00     4
 20 AUG   66 Beg Gr Fil    5742   1.78  14.8   70  1.2  0.00  0.00  0.00  0.00     5
 30 SEP  107 End Gr Fil   10336   0.80  14.8  112  1.1  0.04  0.00  0.00  0.00     6
  3 OCT  110 Maturity     10336   0.80  14.8  112  1.1  0.22  0.00  0.00  0.00    10
  3 OCT  110 Harvest      10336   0.80  14.8  112  1.1  0.00  0.00  0.00  0.00    10


*MAIN GROWTH AND DEVELOPMENT VARIABLES

@     VARIABLE                                         SIMULATED     MEASURED
      --------                                         ---------     --------
      Anthesis day (dap)                                      52          -99
      Physiological maturity day (dap)                       110          -99
      Yield at harvest maturity (kg [dm]/ha)                4709          -99
      Number at maturity (no/m2)                             986          -99
      Unit wt at maturity (g [dm]/unit)                   0.4773          -99
      Number at maturity (no/unit)                         151.8          -99
      Tops weight at maturity (kg [dm]/ha)                 10336          -99
      By-product produced (stalk) at maturity (kg[dm]/ha    5658          -99
      Leaf area index, maximum                              2.00          -99
      Harvest index at maturity                            0.456          -99
      Grain N at maturity (kg/ha)                             80          -99
      Tops N at maturity (kg/ha)                             112          -99
      Stem N at maturity (kg/ha)                              31          -99
      Grain N at maturity (%)                                1.7          -99
      Tops weight at anthesis (kg [dm]/ha)                  3553          -99
      Tops N at anthesis (kg/ha)                              70          -99
      Leaf number per stem at maturity                     14.76          -99
      Emergence day (dap)                                      6          -99


*ENVIRONMENTAL AND STRESS FACTORS

 |-----Development Phase------|--------------------------------------Environment--------------------------------------|-----------------Stress-----------------|
                              |---------------Average--------------|-----Cumulative-----|--------Count of days--------|          (0=Min, 1=Max Stress)         |
                         Time  Temp  Temp  Temp Solar Photop                Evapo    Pot TMIN TMIN TMAX TMAX TMAX RAIN|----Water----|---Nitrogen--|-Phosphorus-|
                         Span   Max   Min  Mean   Rad  [day]    CO2   Rain  Trans     ET   <    <    >    >    >    >   Photo         Photo         Photo
                         days    øC    øC    øC MJ/m2     hr    ppm     mm     mm     mm  0øC  2øC 30øC 32øC 34øC  0mm  synth Growth  synth Growth  synth Growth
----------------------------------------------------------------------------------------------------------------------------------------------------------------
 Emergence-End Juvenile     8  25.6  15.2  20.4  16.3  12.49  380.0   52.0   31.2   33.1    0    0    0    0    0    4  0.000  0.000  0.002  0.005  0.000  0.000
 End Juvenil-Floral Init    5  25.5  16.1  20.8  18.2  12.48  380.0    5.8   19.6   23.1    0    0    0    0    0    1  0.000  0.000  0.002  0.005  0.000  0.000
 Floral Init-End Lf Grow   33  25.5  14.6  20.1  19.1  12.42  380.0  141.1  122.0  146.2    0    0    0    0    0   14  0.000  0.000  0.000  0.000  0.000  0.000
 End Lf Grth-Beg Grn Fil   14  25.1  14.1  19.6  18.1  12.29  380.0   62.2   53.9   56.1    0    0    0    0    0    3  0.000  0.000  0.000  0.000  0.000  0.000
 Grain Filling Phase       41  25.7  13.9  19.8  20.6  12.09  380.0   86.6  160.7  189.7    0    0    0    0    0    8  0.001  0.045  0.000  0.000  0.000  0.000
   
 Planting to Harvest      110  25.6  14.4  20.0  19.3  12.28  380.0  366.6  423.2  491.4    0    0    0    0    0   33  0.000  0.020  0.000  0.001  0.000  0.000
----------------------------------------------------------------------------------------------------------------------------------------------------------------


*Resource Productivity
 Growing season length: 110 days 

 Precipitation during growing season       366.6 mm[rain]
   Dry Matter Productivity                  2.82 kg[DM]/m3[rain]          =   28.2 kg[DM]/ha per mm[rain]
   Yield Productivity                       1.28 kg[grain yield]/m3[rain] =   12.8 kg[yield]/ha per mm[rain]

 Evapotranspiration during growing season  423.2 mm[ET]
   Dry Matter Productivity                  2.44 kg[DM]/m3[ET]            =   24.4 kg[DM]/ha per mm[ET]
   Yield Productivity                       1.11 kg[grain yield]/m3[ET]   =   11.1 kg[yield]/ha per mm[ET]

 Transpiration during growing season       238.9 mm[EP]
   Dry Matter Productivity                  4.33 kg[DM]/m3[EP]            =   43.3 kg[DM]/ha per mm[EP]
   Yield Productivity                       1.97 kg[grain yield]/m3[EP]   =   19.7 kg[yield]/ha per mm[EP]

 N applied during growing season             60. kg[N applied]/ha
   Dry Matter Productivity                 172.3 kg[DM]/kg[N applied]
   Yield Productivity                       78.5 kg[yield]/kg[N applied]

 N uptake during growing season              124 kg[N uptake]/ha
   Dry Matter Productivity                  83.4 kg[DM]/kg[N uptake]
   Yield Productivity                       38.0 kg[yield]/kg[N uptake]

--------------------------------------------------------------------------------------------------------------

                     Maize YIELD :     4709 kg/ha    [Dry weight] 

**************************************************************************************************************

*DSSAT Cropping System Model Ver. 4.7.5.008 -release  JAN 07, 2021 20:33:24

*RUN   7        : ERiMA DCC1                MZCER047 ETMZmelk    1
 MODEL          : MZCER047 - Maize
 EXPERIMENT     : ETMZmelk SN MELKSSAL
 DATA PATH      : C:\IRI\Python_Dash\ET_DSS_hist\TEST\
 TREATMENT  1   : ERiMA DCC1                MZCER047


 CROP           : Maize            CULTIVAR : MELKASA-early    ECOTYPE :IB0001
 STARTING DATE  : JUN 14 1987
 PLANTING DATE  : JUN 15 1987        PLANTS/m2 :  6.5     ROW SPACING :  75.cm
 WEATHER        : MELK8701
 SOIL           : ETET001_18     TEXTURE : L     -   ET000_18
 SOIL INITIAL C : DEPTH:200cm EXTR. H2O:300.3mm  NO3: 39.6kg/ha  NH4:  2.4kg/ha
 WATER BALANCE  : RAINFED
 IRRIGATION     : NOT IRRIGATED
 NITROGEN BAL.  : SOIL-N & N-UPTAKE SIMULATION; NO N-FIXATION
 N-FERTILIZER   :       60 kg/ha IN     2 APPLICATIONS
 RESIDUE/MANURE : INITIAL :     0 kg/ha ;       0 kg/ha IN     0 APPLICATIONS
 ENVIRONM. OPT. : DAYL=    0.00  SRAD=    0.00  TMAX=    0.00  TMIN=    0.00
                  RAIN=    0.00  CO2 =    0.00  DEW =    0.00  WIND=    0.00
 SIMULATION OPT : WATER   :Y  NITROGEN:Y  N-FIX:N  PHOSPH :N  PESTS  :N
                  PHOTO   :C  ET      :R  INFIL:S  HYDROL :R  SOM    :G
                  CO2     :D  NSWIT   :1  EVAP :S  SOIL   :2  STEMP  :D
 MANAGEMENT OPT : PLANTING:R  IRRIG   :N  FERT :D  RESIDUE:N  HARVEST:M
                  WEATHER :M  TILLAGE :N

*SUMMARY OF SOIL AND GENETIC INPUT PARAMETERS

   SOIL LOWER UPPER   SAT  EXTR  INIT   ROOT   BULK     pH    NO3    NH4    ORG
  DEPTH LIMIT LIMIT    SW    SW    SW   DIST   DENS                          C
   cm   cm3/cm3    cm3/cm3    cm3/cm3         g/cm3         ugN/g  ugN/g     %
-------------------------------------------------------------------------------
  0-  5 0.166 0.260 0.433 0.094 0.231   1.00   1.20   7.90  15.00   0.10   1.50
  5- 15 0.166 0.260 0.433 0.094 0.231   1.00   1.20   7.90  15.00   0.10   1.50
 15- 20 0.166 0.260 0.433 0.094 0.231   1.00   1.20   7.90  15.00   0.10   1.50
 20- 35 0.121 0.264 0.434 0.143 0.221   0.58   1.20   8.00   2.00   0.10   1.48
 35- 50 0.121 0.316 0.466 0.195 0.316   0.10   1.10   8.30   0.00   0.10   1.46
 50- 65 0.121 0.316 0.466 0.195 0.316   0.10   1.10   8.30   0.00   0.10   1.46
 65- 81 0.134 0.304 0.477 0.170 0.304   0.00   1.00   8.50   0.00   0.10   1.40
 81- 97 0.134 0.304 0.477 0.170 0.304   0.00   1.00   8.50   0.00   0.10   1.40
 97-118 0.156 0.305 0.433 0.149 0.305   0.00   1.28   8.60   0.00   0.10   0.98
118-140 0.156 0.305 0.433 0.149 0.305   0.00   1.28   8.60   0.00   0.10   0.98
140-170 0.162 0.298 0.428 0.136 0.298   0.00   1.36   8.50   0.00   0.10   0.78
170-200 0.173 0.314 0.433 0.141 0.314   0.00   1.33   8.30   0.00   0.10   0.78

TOT-200  29.8  59.8  88.9  30.0  58.6  <--cm   -  kg/ha-->   39.6    2.4 272505
SOIL ALBEDO    : 0.13      EVAPORATION LIMIT : 6.00         MIN. FACTOR  : 1.00
RUNOFF CURVE # :81.00      DRAINAGE RATE     : 0.60         FERT. FACTOR : 0.70

 Maize      CULTIVAR :CIMT02-MELKASA-early      ECOTYPE :IB0001
 P1     : 101.50  P2     : 0.7500  P5     : 685.00
 G2     : 375.00  G3     : 11.650  PHINT  : 40.000


*SIMULATED CROP AND SOIL STATUS AT MAIN DEVELOPMENT STAGES

 RUN NO.     7     ERiMA DCC1              

        CROP GROWTH     BIOMASS         LEAF   CROP N     STRESS      STRESS                                           
   DATE  AGE STAGE        kg/ha    LAI   NUM  kg/ha  %   H2O  Nitr Phos1 Phos2  RSTG                                   
 ------  --- ----------   -----  -----  ----  ---  ---  ----  ----  ----  ----  ----                                   
 14 JUN    0 Start Sim        0   0.00   0.0    0  0.0  0.00  0.00  0.00  0.00     7
 15 JUN    0 Sowing           0   0.00   0.0    0  0.0  0.00  0.00  0.00  0.00     8
 16 JUN    1 Germinate        0   0.00   0.0    0  0.0  0.00  0.00  0.00  0.00     9
 21 JUN    6 Emergence       26   0.00   2.0    1  4.4  0.00  0.01  0.00  0.00     1
 27 JUN   12 End Juveni      29   0.06   4.9    1  3.9  0.03  0.00  0.00  0.00     2
  2 JUL   17 Floral Ini      59   0.12   6.7    2  4.2  0.48  0.00  0.00  0.00     3
 31 JUL   46 75% Silkin    2561   1.32  14.4   51  2.0  0.26  0.00  0.00  0.00     4
 13 AUG   59 Beg Gr Fil    2812   0.86  14.4   51  1.8  0.72  0.00  0.00  0.00     5
 18 SEP   95 End Gr Fil    4734   0.60  14.4   57  1.2  0.00  0.00  0.00  0.00     6
 21 SEP   98 Maturity      4734   0.60  14.4   57  1.2  0.00  0.00  0.00  0.00    10
 21 SEP   98 Harvest       4734   0.60  14.4   57  1.2  0.00  0.00  0.00  0.00    10


*MAIN GROWTH AND DEVELOPMENT VARIABLES

@     VARIABLE                                         SIMULATED     MEASURED
      --------                                         ---------     --------
      Anthesis day (dap)                                      46          -99
      Physiological maturity day (dap)                        98          -99
      Yield at harvest maturity (kg [dm]/ha)                1976          -99
      Number at maturity (no/m2)                             471          -99
      Unit wt at maturity (g [dm]/unit)                   0.4194          -99
      Number at maturity (no/unit)                          72.5          -99
      Tops weight at maturity (kg [dm]/ha)                  4734          -99
      By-product produced (stalk) at maturity (kg[dm]/ha    2780          -99
      Leaf area index, maximum                              1.36          -99
      Harvest index at maturity                            0.417          -99
      Grain N at maturity (kg/ha)                             34          -99
      Tops N at maturity (kg/ha)                              57          -99
      Stem N at maturity (kg/ha)                              23          -99
      Grain N at maturity (%)                                1.7          -99
      Tops weight at anthesis (kg [dm]/ha)                  2489          -99
      Tops N at anthesis (kg/ha)                              49          -99
      Leaf number per stem at maturity                     14.44          -99
      Emergence day (dap)                                      6          -99


*ENVIRONMENTAL AND STRESS FACTORS

 |-----Development Phase------|--------------------------------------Environment--------------------------------------|-----------------Stress-----------------|
                              |---------------Average--------------|-----Cumulative-----|--------Count of days--------|          (0=Min, 1=Max Stress)         |
                         Time  Temp  Temp  Temp Solar Photop                Evapo    Pot TMIN TMIN TMAX TMAX TMAX RAIN|----Water----|---Nitrogen--|-Phosphorus-|
                         Span   Max   Min  Mean   Rad  [day]    CO2   Rain  Trans     ET   <    <    >    >    >    >   Photo         Photo         Photo
                         days    øC    øC    øC MJ/m2     hr    ppm     mm     mm     mm  0øC  2øC 30øC 32øC 34øC  0mm  synth Growth  synth Growth  synth Growth
----------------------------------------------------------------------------------------------------------------------------------------------------------------
 Emergence-End Juvenile     6  29.1  14.2  21.6  21.5  12.49  380.0    0.0    3.3   32.7    0    0    1    0    0    0  0.000  0.000  0.002  0.005  0.000  0.000
 End Juvenil-Floral Init    5  27.8  15.6  21.7  20.3  12.48  380.0    5.2    3.5   25.4    0    0    1    0    0    1  0.151  0.392  0.000  0.000  0.000  0.000
 Floral Init-End Lf Grow   29  27.4  15.6  21.5  20.2  12.44  380.0   86.8   87.6  141.5    0    0    4    0    0    5  0.117  0.259  0.000  0.000  0.000  0.000
 End Lf Grth-Beg Grn Fil   13  27.0  15.7  21.3  19.8  12.34  380.0   60.3   17.9   60.4    0    0    1    0    0    2  0.694  0.771  0.000  0.000  0.000  0.000
 Grain Filling Phase       36  26.7  15.5  21.1  19.9  12.16  380.0  100.5  122.1  170.3    0    0    0    0    0    5  0.000  0.000  0.000  0.000  0.000  0.000
   
 Planting to Harvest       98  27.3  15.5  21.4  20.3  12.32  380.0  252.8  250.4  480.3    0    0    7    0    0   13  0.134  0.199  0.000  0.000  0.000  0.000
----------------------------------------------------------------------------------------------------------------------------------------------------------------


*Resource Productivity
 Growing season length:  98 days 

 Precipitation during growing season       252.8 mm[rain]
   Dry Matter Productivity                  1.87 kg[DM]/m3[rain]          =   18.7 kg[DM]/ha per mm[rain]
   Yield Productivity                       0.78 kg[grain yield]/m3[rain] =    7.8 kg[yield]/ha per mm[rain]

 Evapotranspiration during growing season  250.4 mm[ET]
   Dry Matter Productivity                  1.89 kg[DM]/m3[ET]            =   18.9 kg[DM]/ha per mm[ET]
   Yield Productivity                       0.79 kg[grain yield]/m3[ET]   =    7.9 kg[yield]/ha per mm[ET]

 Transpiration during growing season       138.4 mm[EP]
   Dry Matter Productivity                  3.42 kg[DM]/m3[EP]            =   34.2 kg[DM]/ha per mm[EP]
   Yield Productivity                       1.43 kg[grain yield]/m3[EP]   =   14.3 kg[yield]/ha per mm[EP]

 N applied during growing season             60. kg[N applied]/ha
   Dry Matter Productivity                  78.9 kg[DM]/kg[N applied]
   Yield Productivity                       32.9 kg[yield]/kg[N applied]

 N uptake during growing season               64 kg[N uptake]/ha
   Dry Matter Productivity                  74.0 kg[DM]/kg[N uptake]
   Yield Productivity                       30.9 kg[yield]/kg[N uptake]

--------------------------------------------------------------------------------------------------------------

                     Maize YIELD :     1976 kg/ha    [Dry weight] 

**************************************************************************************************************

*DSSAT Cropping System Model Ver. 4.7.5.008 -release  JAN 07, 2021 20:33:24

*RUN   8        : ERiMA DCC1                MZCER047 ETMZmelk    1
 MODEL          : MZCER047 - Maize
 EXPERIMENT     : ETMZmelk SN MELKSSAL
 DATA PATH      : C:\IRI\Python_Dash\ET_DSS_hist\TEST\
 TREATMENT  1   : ERiMA DCC1                MZCER047


 CROP           : Maize            CULTIVAR : MELKASA-early    ECOTYPE :IB0001
 STARTING DATE  : JUN 13 1988
 PLANTING DATE  : JUN 14 1988        PLANTS/m2 :  6.5     ROW SPACING :  75.cm
 WEATHER        : MELK8801
 SOIL           : ETET001_18     TEXTURE : L     -   ET000_18
 SOIL INITIAL C : DEPTH:200cm EXTR. H2O:300.3mm  NO3: 39.6kg/ha  NH4:  2.4kg/ha
 WATER BALANCE  : RAINFED
 IRRIGATION     : NOT IRRIGATED
 NITROGEN BAL.  : SOIL-N & N-UPTAKE SIMULATION; NO N-FIXATION
 N-FERTILIZER   :       60 kg/ha IN     2 APPLICATIONS
 RESIDUE/MANURE : INITIAL :     0 kg/ha ;       0 kg/ha IN     0 APPLICATIONS
 ENVIRONM. OPT. : DAYL=    0.00  SRAD=    0.00  TMAX=    0.00  TMIN=    0.00
                  RAIN=    0.00  CO2 =    0.00  DEW =    0.00  WIND=    0.00
 SIMULATION OPT : WATER   :Y  NITROGEN:Y  N-FIX:N  PHOSPH :N  PESTS  :N
                  PHOTO   :C  ET      :R  INFIL:S  HYDROL :R  SOM    :G
                  CO2     :D  NSWIT   :1  EVAP :S  SOIL   :2  STEMP  :D
 MANAGEMENT OPT : PLANTING:R  IRRIG   :N  FERT :D  RESIDUE:N  HARVEST:M
                  WEATHER :M  TILLAGE :N

*SUMMARY OF SOIL AND GENETIC INPUT PARAMETERS

   SOIL LOWER UPPER   SAT  EXTR  INIT   ROOT   BULK     pH    NO3    NH4    ORG
  DEPTH LIMIT LIMIT    SW    SW    SW   DIST   DENS                          C
   cm   cm3/cm3    cm3/cm3    cm3/cm3         g/cm3         ugN/g  ugN/g     %
-------------------------------------------------------------------------------
  0-  5 0.166 0.260 0.433 0.094 0.231   1.00   1.20   7.90  15.00   0.10   1.50
  5- 15 0.166 0.260 0.433 0.094 0.231   1.00   1.20   7.90  15.00   0.10   1.50
 15- 20 0.166 0.260 0.433 0.094 0.231   1.00   1.20   7.90  15.00   0.10   1.50
 20- 35 0.121 0.264 0.434 0.143 0.221   0.58   1.20   8.00   2.00   0.10   1.48
 35- 50 0.121 0.316 0.466 0.195 0.316   0.10   1.10   8.30   0.00   0.10   1.46
 50- 65 0.121 0.316 0.466 0.195 0.316   0.10   1.10   8.30   0.00   0.10   1.46
 65- 81 0.134 0.304 0.477 0.170 0.304   0.00   1.00   8.50   0.00   0.10   1.40
 81- 97 0.134 0.304 0.477 0.170 0.304   0.00   1.00   8.50   0.00   0.10   1.40
 97-118 0.156 0.305 0.433 0.149 0.305   0.00   1.28   8.60   0.00   0.10   0.98
118-140 0.156 0.305 0.433 0.149 0.305   0.00   1.28   8.60   0.00   0.10   0.98
140-170 0.162 0.298 0.428 0.136 0.298   0.00   1.36   8.50   0.00   0.10   0.78
170-200 0.173 0.314 0.433 0.141 0.314   0.00   1.33   8.30   0.00   0.10   0.78

TOT-200  29.8  59.8  88.9  30.0  58.6  <--cm   -  kg/ha-->   39.6    2.4 272505
SOIL ALBEDO    : 0.13      EVAPORATION LIMIT : 6.00         MIN. FACTOR  : 1.00
RUNOFF CURVE # :81.00      DRAINAGE RATE     : 0.60         FERT. FACTOR : 0.70

 Maize      CULTIVAR :CIMT02-MELKASA-early      ECOTYPE :IB0001
 P1     : 101.50  P2     : 0.7500  P5     : 685.00
 G2     : 375.00  G3     : 11.650  PHINT  : 40.000


*SIMULATED CROP AND SOIL STATUS AT MAIN DEVELOPMENT STAGES

 RUN NO.     8     ERiMA DCC1              

        CROP GROWTH     BIOMASS         LEAF   CROP N     STRESS      STRESS                                           
   DATE  AGE STAGE        kg/ha    LAI   NUM  kg/ha  %   H2O  Nitr Phos1 Phos2  RSTG                                   
 ------  --- ----------   -----  -----  ----  ---  ---  ----  ----  ----  ----  ----                                   
 13 JUN    0 Start Sim        0   0.00   0.0    0  0.0  0.00  0.00  0.00  0.00     7
 14 JUN    0 Sowing           0   0.00   0.0    0  0.0  0.00  0.00  0.00  0.00     8
 15 JUN    1 Germinate        0   0.00   0.0    0  0.0  0.00  0.00  0.00  0.00     9
 19 JUN    5 Emergence       26   0.00   2.1    1  4.4  0.00  0.01  0.00  0.00     1
 25 JUN   11 End Juveni      33   0.07   5.0    1  3.5  0.06  0.00  0.00  0.00     2
 30 JUN   16 Floral Ini      77   0.17   6.7    3  4.0  0.22  0.00  0.00  0.00     3
 31 JUL   47 75% Silkin    2539   1.48  14.1   52  2.0  0.00  0.00  0.00  0.00     4
 14 AUG   61 Beg Gr Fil    4299   1.39  14.1   52  1.2  0.00  0.00  0.00  0.00     5
 23 SEP  101 End Gr Fil    8281   0.61  14.1   93  1.1  0.00  0.00  0.00  0.00     6
 26 SEP  104 Maturity      8281   0.61  14.1   93  1.1  0.00  0.00  0.00  0.00    10
 26 SEP  104 Harvest       8281   0.61  14.1   93  1.1  0.00  0.00  0.00  0.00    10


*MAIN GROWTH AND DEVELOPMENT VARIABLES

@     VARIABLE                                         SIMULATED     MEASURED
      --------                                         ---------     --------
      Anthesis day (dap)                                      47          -99
      Physiological maturity day (dap)                       104          -99
      Yield at harvest maturity (kg [dm]/ha)                4103          -99
      Number at maturity (no/m2)                             880          -99
      Unit wt at maturity (g [dm]/unit)                   0.4660          -99
      Number at maturity (no/unit)                         135.5          -99
      Tops weight at maturity (kg [dm]/ha)                  8281          -99
      By-product produced (stalk) at maturity (kg[dm]/ha    4202          -99
      Leaf area index, maximum                              1.56          -99
      Harvest index at maturity                            0.495          -99
      Grain N at maturity (kg/ha)                             70          -99
      Tops N at maturity (kg/ha)                              93          -99
      Stem N at maturity (kg/ha)                              23          -99
      Grain N at maturity (%)                                1.7          -99
      Tops weight at anthesis (kg [dm]/ha)                  2441          -99
      Tops N at anthesis (kg/ha)                              51          -99
      Leaf number per stem at maturity                     14.10          -99
      Emergence day (dap)                                      5          -99


*ENVIRONMENTAL AND STRESS FACTORS

 |-----Development Phase------|--------------------------------------Environment--------------------------------------|-----------------Stress-----------------|
                              |---------------Average--------------|-----Cumulative-----|--------Count of days--------|          (0=Min, 1=Max Stress)         |
                         Time  Temp  Temp  Temp Solar Photop                Evapo    Pot TMIN TMIN TMAX TMAX TMAX RAIN|----Water----|---Nitrogen--|-Phosphorus-|
                         Span   Max   Min  Mean   Rad  [day]    CO2   Rain  Trans     ET   <    <    >    >    >    >   Photo         Photo         Photo
                         days    øC    øC    øC MJ/m2     hr    ppm     mm     mm     mm  0øC  2øC 30øC 32øC 34øC  0mm  synth Growth  synth Growth  synth Growth
----------------------------------------------------------------------------------------------------------------------------------------------------------------
 Emergence-End Juvenile     6  30.1  16.1  23.1  20.4  12.49  380.0    0.0    3.5   31.9    0    0    4    1    0    0  0.000  0.000  0.002  0.005  0.000  0.000
 End Juvenil-Floral Init    5  24.6  15.4  20.0  20.5  12.49  380.0   48.3   12.0   24.7    0    0    0    0    0    1  0.037  0.288  0.000  0.000  0.000  0.000
 Floral Init-End Lf Grow   31  24.9  16.2  20.5  15.7  12.44  380.0  164.3  113.1  115.4    0    0    0    0    0   12  0.000  0.000  0.000  0.000  0.000  0.000
 End Lf Grth-Beg Grn Fil   14  24.4  15.8  20.1  17.6  12.33  380.0  120.9   55.4   55.6    0    0    0    0    0    9  0.000  0.000  0.000  0.000  0.000  0.000
 Grain Filling Phase       40  24.7  15.4  20.1  19.3  12.13  380.0  210.7  164.4  177.8    0    0    0    0    0   17  0.000  0.000  0.000  0.000  0.000  0.000
   
 Planting to Harvest      104  25.3  15.7  20.5  18.1  12.30  380.0  544.2  361.0  445.3    0    0    7    1    0   39  0.002  0.014  0.000  0.000  0.000  0.000
----------------------------------------------------------------------------------------------------------------------------------------------------------------


*Resource Productivity
 Growing season length: 104 days 

 Precipitation during growing season       544.2 mm[rain]
   Dry Matter Productivity                  1.52 kg[DM]/m3[rain]          =   15.2 kg[DM]/ha per mm[rain]
   Yield Productivity                       0.75 kg[grain yield]/m3[rain] =    7.5 kg[yield]/ha per mm[rain]

 Evapotranspiration during growing season  361.0 mm[ET]
   Dry Matter Productivity                  2.29 kg[DM]/m3[ET]            =   22.9 kg[DM]/ha per mm[ET]
   Yield Productivity                       1.14 kg[grain yield]/m3[ET]   =   11.4 kg[yield]/ha per mm[ET]

 Transpiration during growing season       184.3 mm[EP]
   Dry Matter Productivity                  4.49 kg[DM]/m3[EP]            =   44.9 kg[DM]/ha per mm[EP]
   Yield Productivity                       2.23 kg[grain yield]/m3[EP]   =   22.3 kg[yield]/ha per mm[EP]

 N applied during growing season             60. kg[N applied]/ha
   Dry Matter Productivity                 138.0 kg[DM]/kg[N applied]
   Yield Productivity                       68.4 kg[yield]/kg[N applied]

 N uptake during growing season              100 kg[N uptake]/ha
   Dry Matter Productivity                  82.8 kg[DM]/kg[N uptake]
   Yield Productivity                       41.0 kg[yield]/kg[N uptake]

--------------------------------------------------------------------------------------------------------------

                     Maize YIELD :     4103 kg/ha    [Dry weight] 

**************************************************************************************************************

*DSSAT Cropping System Model Ver. 4.7.5.008 -release  JAN 07, 2021 20:33:24

*RUN   9        : ERiMA DCC1                MZCER047 ETMZmelk    1
 MODEL          : MZCER047 - Maize
 EXPERIMENT     : ETMZmelk SN MELKSSAL
 DATA PATH      : C:\IRI\Python_Dash\ET_DSS_hist\TEST\
 TREATMENT  1   : ERiMA DCC1                MZCER047


 CROP           : Maize            CULTIVAR : MELKASA-early    ECOTYPE :IB0001
 STARTING DATE  : JUN 14 1989
 PLANTING DATE  : JUN 15 1989        PLANTS/m2 :  6.5     ROW SPACING :  75.cm
 WEATHER        : MELK8901
 SOIL           : ETET001_18     TEXTURE : L     -   ET000_18
 SOIL INITIAL C : DEPTH:200cm EXTR. H2O:300.3mm  NO3: 39.6kg/ha  NH4:  2.4kg/ha
 WATER BALANCE  : RAINFED
 IRRIGATION     : NOT IRRIGATED
 NITROGEN BAL.  : SOIL-N & N-UPTAKE SIMULATION; NO N-FIXATION
 N-FERTILIZER   :       60 kg/ha IN     2 APPLICATIONS
 RESIDUE/MANURE : INITIAL :     0 kg/ha ;       0 kg/ha IN     0 APPLICATIONS
 ENVIRONM. OPT. : DAYL=    0.00  SRAD=    0.00  TMAX=    0.00  TMIN=    0.00
[...]

                     Maize YIELD :     3523 kg/ha    [Dry weight] 

**************************************************************************************************************

*DSSAT Cropping System Model Ver. 4.7.5.008 -release  JAN 07, 2021 20:33:40

*RUN  69        : ERiMA DCC1                MZCER047 ETMZbako    1
 MODEL          : MZCER047 - Maize
 EXPERIMENT     : ETMZbako SN MELKSSAL
 DATA PATH      : C:\IRI\Python_Dash\ET_DSS_hist\TEST\
 TREATMENT  1   : ERiMA DCC1                MZCER047


 CROP           : Maize            CULTIVAR : BH540-Kassie     ECOTYPE :IB0001
 STARTING DATE  : JUN 14 2014
 PLANTING DATE  : JUN 15 2014        PLANTS/m2 :  6.5     ROW SPACING :  75.cm
 WEATHER        : BAKO1401
 SOIL           : ETET001_18     TEXTURE : L     -   ET000_18
 SOIL INITIAL C : DEPTH:200cm EXTR. H2O:300.3mm  NO3: 39.6kg/ha  NH4:  2.4kg/ha
 WATER BALANCE  : RAINFED
 IRRIGATION     : NOT IRRIGATED
 NITROGEN BAL.  : SOIL-N & N-UPTAKE SIMULATION; NO N-FIXATION
 N-FERTILIZER   :       60 kg/ha IN     2 APPLICATIONS
 RESIDUE/MANURE : INITIAL :     0 kg/ha ;       0 kg/ha IN     0 APPLICATIONS
 ENVIRONM. OPT. : DAYL=    0.00  SRAD=    0.00  TMAX=    0.00  TMIN=    0.00
                  RAIN=    0.00  CO2 =    0.00  DEW =    0.00  WIND=    0.00
 SIMULATION OPT : WATER   :Y  NITROGEN:Y  N-FIX:N  PHOSPH :N  PESTS  :N
                  PHOTO   :C  ET      :R  INFIL:S  HYDROL :R  SOM    :G
                  CO2     :D  NSWIT   :1  EVAP :S  SOIL   :2  STEMP  :D
 MANAGEMENT OPT : PLANTING:R  IRRIG   :N  FERT :D  RESIDUE:N  HARVEST:M
                  WEATHER :M  TILLAGE :N

*SUMMARY OF SOIL AND GENETIC INPUT PARAMETERS

   SOIL LOWER UPPER   SAT  EXTR  INIT   ROOT   BULK     pH    NO3    NH4    ORG
  DEPTH LIMIT LIMIT    SW    SW    SW   DIST   DENS                          C
   cm   cm3/cm3    cm3/cm3    cm3/cm3         g/cm3         ugN/g  ugN/g     %
-------------------------------------------------------------------------------
  0-  5 0.166 0.260 0.433 0.094 0.231   1.00   1.20   7.90  15.00   0.10   1.50
  5- 15 0.166 0.260 0.433 0.094 0.231   1.00   1.20   7.90  15.00   0.10   1.50
 15- 20 0.166 0.260 0.433 0.094 0.231   1.00   1.20   7.90  15.00   0.10   1.50
 20- 35 0.121 0.264 0.434 0.143 0.221   0.58   1.20   8.00   2.00   0.10   1.48
 35- 50 0.121 0.316 0.466 0.195 0.316   0.10   1.10   8.30   0.00   0.10   1.46
 50- 65 0.121 0.316 0.466 0.195 0.316   0.10   1.10   8.30   0.00   0.10   1.46
 65- 81 0.134 0.304 0.477 0.170 0.304   0.00   1.00   8.50   0.00   0.10   1.40
 81- 97 0.134 0.304 0.477 0.170 0.304   0.00   1.00   8.50   0.00   0.10   1.40
 97-118 0.156 0.305 0.433 0.149 0.305   0.00   1.28   8.60   0.00   0.10   0.98
118-140 0.156 0.305 0.433 0.149 0.305   0.00   1.28   8.60   0.00   0.10   0.98
140-170 0.162 0.298 0.428 0.136 0.298   0.00   1.36   8.50   0.00   0.10   0.78
170-200 0.173 0.314 0.433 0.141 0.314   0.00   1.33   8.30   0.00   0.10   0.78

TOT-200  29.8  59.8  88.9  30.0  58.6  <--cm   -  kg/ha-->   39.6    2.4 272505
SOIL ALBEDO    : 0.13      EVAPORATION LIMIT : 6.00         MIN. FACTOR  : 1.00
RUNOFF CURVE # :81.00      DRAINAGE RATE     : 0.60         FERT. FACTOR : 0.70

 Maize      CULTIVAR :CIMT01-BH540-Kassie       ECOTYPE :IB0001
 P1     : 220.10  P2     : 0.8600  P5     : 840.10
 G2     : 266.20  G3     : 10.650  PHINT  : 38.900


*SIMULATED CROP AND SOIL STATUS AT MAIN DEVELOPMENT STAGES

 RUN NO.    69     ERiMA DCC1              

        CROP GROWTH     BIOMASS         LEAF   CROP N     STRESS      STRESS                                           
   DATE  AGE STAGE        kg/ha    LAI   NUM  kg/ha  %   H2O  Nitr Phos1 Phos2  RSTG                                   
 ------  --- ----------   -----  -----  ----  ---  ---  ----  ----  ----  ----  ----                                   
 14 JUN    0 Start Sim        0   0.00   0.0    0  0.0  0.00  0.00  0.00  0.00     7
 15 JUN    0 Sowing           0   0.00   0.0    0  0.0  0.00  0.00  0.00  0.00     8
 16 JUN    1 Germinate        0   0.00   0.0    0  0.0  0.00  0.00  0.00  0.00     9
 21 JUN    6 Emergence       26   0.00   1.9    1  4.4  0.00  0.01  0.00  0.00     1
  8 JUL   23 End Juveni     170   0.35   8.1    6  3.6  0.00  0.01  0.00  0.00     2
 13 JUL   28 Floral Ini     327   0.60   9.6   12  3.8  0.00  0.00  0.00  0.00     3
 26 AUG   72 75% Silkin    5962   2.95  20.0   85  1.4  0.00  0.10  0.00  0.00     4
 10 SEP   87 Beg Gr Fil    8007   2.46  20.0   91  1.1  0.00  0.24  0.00  0.00     5
 28 OCT  135 End Gr Fil   12141   1.43  20.0  104  0.9  0.00  0.21  0.00  0.00     6
  1 NOV  139 Maturity     12141   1.43  20.0  104  0.9  0.00  0.33  0.00  0.00    10
  1 NOV  139 Harvest      12141   1.43  20.0  104  0.9  0.00  0.00  0.00  0.00    10


*MAIN GROWTH AND DEVELOPMENT VARIABLES

@     VARIABLE                                         SIMULATED     MEASURED
      --------                                         ---------     --------
      Anthesis day (dap)                                      72          -99
      Physiological maturity day (dap)                       139          -99
      Yield at harvest maturity (kg [dm]/ha)                4222          -99
      Number at maturity (no/m2)                             826          -99
      Unit wt at maturity (g [dm]/unit)                   0.5112          -99
      Number at maturity (no/unit)                         127.1          -99
      Tops weight at maturity (kg [dm]/ha)                 12141          -99
      By-product produced (stalk) at maturity (kg[dm]/ha    7976          -99
      Leaf area index, maximum                              3.03          -99
      Harvest index at maturity                            0.348          -99
      Grain N at maturity (kg/ha)                             60          -99
      Tops N at maturity (kg/ha)                             104          -99
      Stem N at maturity (kg/ha)                              44          -99
      Grain N at maturity (%)                                1.4          -99
      Tops weight at anthesis (kg [dm]/ha)                  5804          -99
      Tops N at anthesis (kg/ha)                              85          -99
      Leaf number per stem at maturity                     20.05          -99
      Emergence day (dap)                                      6          -99


*ENVIRONMENTAL AND STRESS FACTORS

 |-----Development Phase------|--------------------------------------Environment--------------------------------------|-----------------Stress-----------------|
                              |---------------Average--------------|-----Cumulative-----|--------Count of days--------|          (0=Min, 1=Max Stress)         |
                         Time  Temp  Temp  Temp Solar Photop                Evapo    Pot TMIN TMIN TMAX TMAX TMAX RAIN|----Water----|---Nitrogen--|-Phosphorus-|
                         Span   Max   Min  Mean   Rad  [day]    CO2   Rain  Trans     ET   <    <    >    >    >    >   Photo         Photo         Photo
                         days    øC    øC    øC MJ/m2     hr    ppm     mm     mm     mm  0øC  2øC 30øC 32øC 34øC  0mm  synth Growth  synth Growth  synth Growth
----------------------------------------------------------------------------------------------------------------------------------------------------------------
 Emergence-End Juvenile    17  25.6  14.6  20.1  16.0  12.53  380.0  160.7   65.3   68.4    0    0    0    0    0    7  0.000  0.000  0.003  0.007  0.000  0.000
 End Juvenil-Floral Init    5  23.6  14.2  18.9  15.2  12.50  380.0   13.6   17.9   18.0    0    0    0    0    0    1  0.000  0.000  0.000  0.000  0.000  0.000
 Floral Init-End Lf Grow   44  23.8  14.2  19.0  15.5  12.37  380.0  275.4  148.1  148.7    0    0    0    0    0   20  0.000  0.000  0.037  0.091  0.000  0.000
 End Lf Grth-Beg Grn Fil   15  24.8  14.4  19.6  18.2  12.16  380.0   92.9   58.8   59.1    0    0    0    0    0    9  0.000  0.000  0.100  0.249  0.000  0.000
 Grain Filling Phase       48  27.3  15.1  21.2  18.9  11.89  380.0  252.2  201.1  207.2    0    0    6    0    0   20  0.000  0.000  0.082  0.206  0.000  0.000
   
 Planting to Harvest      139  25.5  14.5  20.0  17.3  12.19  380.0  830.7  526.6  548.8    0    0    6    0    0   60  0.000  0.000  0.055  0.137  0.000  0.000
----------------------------------------------------------------------------------------------------------------------------------------------------------------


*Resource Productivity
 Growing season length: 139 days 

 Precipitation during growing season       830.7 mm[rain]
   Dry Matter Productivity                  1.46 kg[DM]/m3[rain]          =   14.6 kg[DM]/ha per mm[rain]
   Yield Productivity                       0.51 kg[grain yield]/m3[rain] =    5.1 kg[yield]/ha per mm[rain]

 Evapotranspiration during growing season  526.6 mm[ET]
   Dry Matter Productivity                  2.31 kg[DM]/m3[ET]            =   23.1 kg[DM]/ha per mm[ET]
   Yield Productivity                       0.80 kg[grain yield]/m3[ET]   =    8.0 kg[yield]/ha per mm[ET]

 Transpiration during growing season       331.5 mm[EP]
   Dry Matter Productivity                  3.66 kg[DM]/m3[EP]            =   36.6 kg[DM]/ha per mm[EP]
   Yield Productivity                       1.27 kg[grain yield]/m3[EP]   =   12.7 kg[yield]/ha per mm[EP]

 N applied during growing season             60. kg[N applied]/ha
   Dry Matter Productivity                 202.4 kg[DM]/kg[N applied]
   Yield Productivity                       70.4 kg[yield]/kg[N applied]

 N uptake during growing season              118 kg[N uptake]/ha
   Dry Matter Productivity                 102.9 kg[DM]/kg[N uptake]
   Yield Productivity                       35.8 kg[yield]/kg[N uptake]

--------------------------------------------------------------------------------------------------------------

                     Maize YIELD :     4222 kg/ha    [Dry weight] 

**************************************************************************************************************

*DSSAT Cropping System Model Ver. 4.7.5.008 -release  JAN 07, 2021 20:33:40

*RUN  70        : ERiMA DCC1                MZCER047 ETMZbako    1
 MODEL          : MZCER047 - Maize
 EXPERIMENT     : ETMZbako SN MELKSSAL
 DATA PATH      : C:\IRI\Python_Dash\ET_DSS_hist\TEST\
 TREATMENT  1   : ERiMA DCC1                MZCER047


 CROP           : Maize            CULTIVAR : BH540-Kassie     ECOTYPE :IB0001
 STARTING DATE  : JUN 14 2015
 PLANTING DATE  : JUN 15 2015        PLANTS/m2 :  6.5     ROW SPACING :  75.cm
 WEATHER        : BAKO1501
 SOIL           : ETET001_18     TEXTURE : L     -   ET000_18
 SOIL INITIAL C : DEPTH:200cm EXTR. H2O:300.3mm  NO3: 39.6kg/ha  NH4:  2.4kg/ha
 WATER BALANCE  : RAINFED
 IRRIGATION     : NOT IRRIGATED
 NITROGEN BAL.  : SOIL-N & N-UPTAKE SIMULATION; NO N-FIXATION
 N-FERTILIZER   :       60 kg/ha IN     2 APPLICATIONS
 RESIDUE/MANURE : INITIAL :     0 kg/ha ;       0 kg/ha IN     0 APPLICATIONS
 ENVIRONM. OPT. : DAYL=    0.00  SRAD=    0.00  TMAX=    0.00  TMIN=    0.00
                  RAIN=    0.00  CO2 =    0.00  DEW =    0.00  WIND=    0.00
 SIMULATION OPT : WATER   :Y  NITROGEN:Y  N-FIX:N  PHOSPH :N  PESTS  :N
                  PHOTO   :C  ET      :R  INFIL:S  HYDROL :R  SOM    :G
                  CO2     :D  NSWIT   :1  EVAP :S  SOIL   :2  STEMP  :D
 MANAGEMENT OPT : PLANTING:R  IRRIG   :N  FERT :D  RESIDUE:N  HARVEST:M
                  WEATHER :M  TILLAGE :N

*SUMMARY OF SOIL AND GENETIC INPUT PARAMETERS

   SOIL LOWER UPPER   SAT  EXTR  INIT   ROOT   BULK     pH    NO3    NH4    ORG
  DEPTH LIMIT LIMIT    SW    SW    SW   DIST   DENS                          C
   cm   cm3/cm3    cm3/cm3    cm3/cm3         g/cm3         ugN/g  ugN/g     %
-------------------------------------------------------------------------------
  0-  5 0.166 0.260 0.433 0.094 0.231   1.00   1.20   7.90  15.00   0.10   1.50
  5- 15 0.166 0.260 0.433 0.094 0.231   1.00   1.20   7.90  15.00   0.10   1.50
 15- 20 0.166 0.260 0.433 0.094 0.231   1.00   1.20   7.90  15.00   0.10   1.50
 20- 35 0.121 0.264 0.434 0.143 0.221   0.58   1.20   8.00   2.00   0.10   1.48
 35- 50 0.121 0.316 0.466 0.195 0.316   0.10   1.10   8.30   0.00   0.10   1.46
 50- 65 0.121 0.316 0.466 0.195 0.316   0.10   1.10   8.30   0.00   0.10   1.46
 65- 81 0.134 0.304 0.477 0.170 0.304   0.00   1.00   8.50   0.00   0.10   1.40
 81- 97 0.134 0.304 0.477 0.170 0.304   0.00   1.00   8.50   0.00   0.10   1.40
 97-118 0.156 0.305 0.433 0.149 0.305   0.00   1.28   8.60   0.00   0.10   0.98
118-140 0.156 0.305 0.433 0.149 0.305   0.00   1.28   8.60   0.00   0.10   0.98
140-170 0.162 0.298 0.428 0.136 0.298   0.00   1.36   8.50   0.00   0.10   0.78
170-200 0.173 0.314 0.433 0.141 0.314   0.00   1.33   8.30   0.00   0.10   0.78

TOT-200  29.8  59.8  88.9  30.0  58.6  <--cm   -  kg/ha-->   39.6    2.4 272505
SOIL ALBEDO    : 0.13      EVAPORATION LIMIT : 6.00         MIN. FACTOR  : 1.00
RUNOFF CURVE # :81.00      DRAINAGE RATE     : 0.60         FERT. FACTOR : 0.70

 Maize      CULTIVAR :CIMT01-BH540-Kassie       ECOTYPE :IB0001
 P1     : 220.10  P2     : 0.8600  P5     : 840.10
 G2     : 266.20  G3     : 10.650  PHINT  : 38.900


*SIMULATED CROP AND SOIL STATUS AT MAIN DEVELOPMENT STAGES

 RUN NO.    70     ERiMA DCC1              

        CROP GROWTH     BIOMASS         LEAF   CROP N     STRESS      STRESS                                           
   DATE  AGE STAGE        kg/ha    LAI   NUM  kg/ha  %   H2O  Nitr Phos1 Phos2  RSTG                                   
 ------  --- ----------   -----  -----  ----  ---  ---  ----  ----  ----  ----  ----                                   
 14 JUN    0 Start Sim        0   0.00   0.0    0  0.0  0.00  0.00  0.00  0.00     7
 15 JUN    0 Sowing           0   0.00   0.0    0  0.0  0.00  0.00  0.00  0.00     8
 16 JUN    1 Germinate        0   0.00   0.0    0  0.0  0.00  0.00  0.00  0.00     9
 20 JUN    5 Emergence       26   0.00   2.1    1  4.4  0.00  0.01  0.00  0.00     1
  6 JUL   21 End Juveni     211   0.42   8.6    7  3.5  0.00  0.00  0.00  0.00     2
 11 JUL   26 Floral Ini     394   0.70  10.1   15  3.8  0.00  0.00  0.00  0.00     3
 26 AUG   72 75% Silkin    5859   2.63  20.8   83  1.4  0.00  0.18  0.00  0.00     4
  9 SEP   86 Beg Gr Fil    7614   2.18  20.8   89  1.2  0.00  0.26  0.00  0.00     5
 29 OCT  136 End Gr Fil   11708   1.32  20.8  102  0.9  0.00  0.21  0.00  0.00     6
  1 NOV  139 Maturity     11708   1.32  20.8  102  0.9  0.00  0.38  0.00  0.00    10
  1 NOV  139 Harvest      11708   1.32  20.8  102  0.9  0.00  0.00  0.00  0.00    10


*MAIN GROWTH AND DEVELOPMENT VARIABLES

@     VARIABLE                                         SIMULATED     MEASURED
      --------                                         ---------     --------
      Anthesis day (dap)                                      72          -99
      Physiological maturity day (dap)                       139          -99
      Yield at harvest maturity (kg [dm]/ha)                4178          -99
      Number at maturity (no/m2)                             785          -99
      Unit wt at maturity (g [dm]/unit)                   0.5325          -99
      Number at maturity (no/unit)                         120.7          -99
      Tops weight at maturity (kg [dm]/ha)                 11708          -99
      By-product produced (stalk) at maturity (kg[dm]/ha    7590          -99
      Leaf area index, maximum                              2.87          -99
      Harvest index at maturity                            0.357          -99
      Grain N at maturity (kg/ha)                             60          -99
      Tops N at maturity (kg/ha)                             102          -99
      Stem N at maturity (kg/ha)                              42          -99
      Grain N at maturity (%)                                1.4          -99
      Tops weight at anthesis (kg [dm]/ha)                  5793          -99
      Tops N at anthesis (kg/ha)                              83          -99
      Leaf number per stem at maturity                     20.83          -99
      Emergence day (dap)                                      5          -99


*ENVIRONMENTAL AND STRESS FACTORS

 |-----Development Phase------|--------------------------------------Environment--------------------------------------|-----------------Stress-----------------|
                              |---------------Average--------------|-----Cumulative-----|--------Count of days--------|          (0=Min, 1=Max Stress)         |
                         Time  Temp  Temp  Temp Solar Photop                Evapo    Pot TMIN TMIN TMAX TMAX TMAX RAIN|----Water----|---Nitrogen--|-Phosphorus-|
                         Span   Max   Min  Mean   Rad  [day]    CO2   Rain  Trans     ET   <    <    >    >    >    >   Photo         Photo         Photo
                         days    øC    øC    øC MJ/m2     hr    ppm     mm     mm     mm  0øC  2øC 30øC 32øC 34øC  0mm  synth Growth  synth Growth  synth Growth
----------------------------------------------------------------------------------------------------------------------------------------------------------------
 Emergence-End Juvenile    16  27.9  15.4  21.6  18.0  12.53  380.0  101.9   69.7   74.5    0    0    2    0    0    8  0.000  0.000  0.002  0.005  0.000  0.000
 End Juvenil-Floral Init    5  24.4  14.7  19.5  14.8  12.51  380.0   37.7   17.7   17.7    0    0    0    0    0    3  0.000  0.000  0.001  0.003  0.000  0.000
 Floral Init-End Lf Grow   46  24.0  14.2  19.1  14.7  12.38  380.0  325.9  147.5  148.1    0    0    0    0    0   29  0.000  0.000  0.067  0.168  0.000  0.000
 End Lf Grth-Beg Grn Fil   14  25.5  14.6  20.0  17.7  12.16  380.0   61.4   54.6   54.9    0    0    0    0    0   10  0.000  0.000  0.111  0.276  0.000  0.000
 Grain Filling Phase       50  27.3  13.9  20.6  20.1  11.89  380.0  154.8  209.0  227.9    0    0    2    0    0   18  0.000  0.000  0.081  0.202  0.000  0.000
   
 Planting to Harvest      139  26.1  14.3  20.2  17.6  12.19  380.0  718.2  538.1  563.6    0    0    4    0    0   73  0.000  0.000  0.066  0.165  0.000  0.000
----------------------------------------------------------------------------------------------------------------------------------------------------------------


*Resource Productivity
 Growing season length: 139 days 

 Precipitation during growing season       718.2 mm[rain]
   Dry Matter Productivity                  1.63 kg[DM]/m3[rain]          =   16.3 kg[DM]/ha per mm[rain]
   Yield Productivity                       0.58 kg[grain yield]/m3[rain] =    5.8 kg[yield]/ha per mm[rain]

 Evapotranspiration during growing season  538.1 mm[ET]
   Dry Matter Productivity                  2.18 kg[DM]/m3[ET]            =   21.8 kg[DM]/ha per mm[ET]
   Yield Productivity                       0.78 kg[grain yield]/m3[ET]   =    7.8 kg[yield]/ha per mm[ET]

 Transpiration during growing season       333.0 mm[EP]
   Dry Matter Productivity                  3.52 kg[DM]/m3[EP]            =   35.2 kg[DM]/ha per mm[EP]
   Yield Productivity                       1.25 kg[grain yield]/m3[EP]   =   12.5 kg[yield]/ha per mm[EP]

 N applied during growing season             60. kg[N applied]/ha
   Dry Matter Productivity                 195.1 kg[DM]/kg[N applied]
   Yield Productivity                       69.6 kg[yield]/kg[N applied]

 N uptake during growing season              116 kg[N uptake]/ha
   Dry Matter Productivity                 100.9 kg[DM]/kg[N uptake]
   Yield Productivity                       36.0 kg[yield]/kg[N uptake]

--------------------------------------------------------------------------------------------------------------

                     Maize YIELD :     4178 kg/ha    [Dry weight] 

**************************************************************************************************************
