*GROWTH ASPECTS OUTPUT FILE

*DSSAT Cropping System Model Ver. 4.7.5.008 -release  JAN 07, 2021 20:33:24

*RUN   1        : ERiMA DCC1                MZCER047 ETMZmelk    1
 MODEL          : MZCER047 - Maize
 EXPERIMENT     : ETMZmelk SN MELKSSAL
 DATA PATH      : C:\IRI\Python_Dash\ET_DSS_hist\TEST\
 TREATMENT  1   : ERiMA DCC1                MZCER047
  
!                                                                                                                                                                                                                                      Root Dens. (cm/cm3) by soil depth (cm):
!                                                                                                                                                                                                                                      0-5    5-15   15-20   20-35   35-50   50-65   65-81   81-97  97-118 118-200
@YEAR DOY   DAS   DAP   L#SD   GSTD   LAID   LWAD   SWAD   GWAD   RWAD   VWAD   CWAD   G#AD   GWGD   HIAD   PWAD   P#AD   WSPD   WSGD   NSTD   EWSD  PST1A  PST2A   KSTD   LN%D   SH%D   HIPD   PWDD   PWTD     SLAD   CHTD   CWID   RDPD    RL1D    RL2D    RL3D    RL4D    RL5D    RL6D    RL7D    RL8D    RL9D   RL10D   CDAD   LDAD   SDAD   SNW0C   SNW1C  DTTD
 1981 166     2     0    0.0      0   0.00      0      0      0      0      0      0      0    0.0  0.000      0      0  0.000  0.000  0.000  0.000  0.000  0.000  0.000   0.00   0.00   0.00      0      0      0.0   0.00   0.00   0.03    0.00    0.00    0.00    0.00    0.00    0.00    0.00    0.00    0.00    0.00      0      0      0       0       0 15.13
 1981 167     3     1    0.0      0   0.00      0      0      0      0      0      0      0    0.0  0.000      0      0  0.000  0.000  0.000  0.000  0.000  0.000  0.000   0.00   0.00   0.00      0      0      0.0   0.00   0.00   0.05    0.00    0.00    0.00    0.00    0.00    0.00    0.00    0.00    0.00    0.00      0      0      0       0       0 16.57
 1981 168     4     2    0.0      0   0.00      0      0      0      0      0      0      0    0.0  0.000      0      0  0.000  0.000  0.000  0.000  0.000  0.000  0.000   0.00   0.00   0.00      0      0      0.0   0.00   0.00   0.07    0.00    0.00    0.00    0.00    0.00    0.00    0.00    0.00    0.00    0.00      0      0      0       0       0 15.78
 1981 169     5     3    0.0      0   0.00      0      0      0      0      0      0      0    0.0  0.000      0      0  0.000  0.000  0.000  0.000  0.000  0.000  0.000   0.00   0.00   0.00      0      0      0.0   0.00   0.00   0.10    0.00    0.00    0.00    0.00    0.00    0.00    0.00    0.00    0.00    0.00      0      0      0       0       0 17.28
 1981 170     6     4    0.0      0   0.00      0      0      0      0      0      0      0    0.0  0.000      0      0  0.000  0.000  0.000  0.000  0.000  0.000  0.000   0.00   0.00   0.00      0      0      0.0   0.00   0.00   0.12    0.00    0.00    0.00    0.00    0.00    0.00    0.00    0.00    0.00    0.00      0      0      0       0       0 15.66
 1981 171     7     5    2.0      1   0.00     13     13      0     13     26     26      0    0.0  0.000      0      0  0.000  0.000  0.012  0.000  0.000  0.000  0.000   4.40   0.00   0.00      0      0     27.1   0.00   0.00   0.14    0.26    0.09    0.00    0.00    0.00    0.00    0.00    0.00    0.00    0.00      0      0      0       0       0 14.98
 1981 172     8     6    2.0      1   0.01     13     13      0     13     26     26      0    0.0  0.000      0      0  0.000  0.000  0.005  0.000  0.000  0.000  0.000   4.40   0.00   0.00      0      0     52.5   0.00   0.00   0.15    0.26    0.10    0.00    0.00    0.00    0.00    0.00    0.00    0.00    0.00      0      0      0       0       0 14.61
 1981 173     9     7    3.0      1   0.01     13     13      0     14     26     26      0    0.0  0.000      0      0  0.000  0.000  0.000  0.000  0.000  0.000  0.000   4.40   0.00   0.00      0      0     84.5   0.01   0.00   0.17    0.25    0.11    0.00    0.00    0.00    0.00    0.00    0.00    0.00    0.00      0      0      0       0       0 15.93
 1981 174    10     8    3.0      1   0.02     13     13      0     15     26     26      0    0.0  0.000      0      0  0.000  0.000  0.000  0.000  0.000  0.000  0.000   4.40   0.00   0.00      0      0    121.2   0.01   0.00   0.18    0.25    0.12    0.01    0.00    0.00    0.00    0.00    0.00    0.00    0.00      0      0      0       0       0 16.41
 1981 175    11     9    4.0      1   0.03     13     13      0     16     26     26      0    0.0  0.000      0      0  0.000  0.000  0.000  0.000  0.000  0.000  0.000   4.40   0.00   0.00      0      0    233.5   0.02   0.00   0.20    0.27    0.14    0.03    0.00    0.00    0.00    0.00    0.00    0.00    0.00      0      0      0       0       0 15.31
 1981 176    12    10    4.0      1   0.05     14     13      0     18     27     27      0    0.0  0.000      0      0  0.000  0.000  0.000  0.000  0.000  0.000  0.000   4.21   0.00   0.00      0      0    337.4   0.02   0.00   0.21    0.29    0.16    0.05    0.00    0.00    0.00    0.00    0.00    0.00    0.00      0      0      0       0       0 15.75
 1981 177    13    11    4.0      1   0.07     22     13      0     20     35     35      0    0.0  0.000      0      0  0.000  0.000  0.000  0.000  0.000  0.000  0.000   3.28   0.00   0.00      0      0    308.9   0.03   0.00   0.22    0.30    0.17    0.06    0.00    0.00    0.00    0.00    0.00    0.00    0.00      0      0      0       0       0 15.29
 1981 178    14    12    5.0      2   0.09     29     13      0     21     42     42      0    0.0  0.000      0      0  0.000  0.000  0.000  0.000  0.000  0.000  0.000   3.18   0.00   0.00      0      0    311.5   0.05   0.00   0.23    0.31    0.18    0.07    0.00    0.00    0.00    0.00    0.00    0.00    0.00      0      0      0       0       0 13.60
 1981 179    15    13    5.0      2   0.12     40     13      0     23     53     53      0    0.0  0.000      0      0  0.000  0.000  0.008  0.000  0.000  0.000  0.000   3.09   0.00   0.00      0      0    291.7   0.06   0.00   0.25    0.33    0.20    0.09    0.00    0.00    0.00    0.00    0.00    0.00    0.00      0      0      0       0       0 15.44
 1981 180    16    14    6.0      2   0.14     49     13      0     28     62     62      0    0.0  0.000      0      0  0.154  0.436  0.000  0.000  0.000  0.000  0.000   3.30   0.00   0.00      0      0    279.3   0.07   0.00   0.26    0.38    0.24    0.13    0.00    0.00    0.00    0.00    0.00    0.00    0.00      0      0      0       0       0 16.09
 1981 181    17    15    6.0      2   0.17     65     13      0     31     78     78      0    0.0  0.000      0      0  0.000  0.000  0.000  0.000  0.000  0.000  0.000   4.14   0.00   0.00      0      0    264.0   0.09   0.00   0.27    0.41    0.27    0.16    0.00    0.00    0.00    0.00    0.00    0.00    0.00      0      0      0       0       0 15.40
 1981 182    18    16    6.0      2   0.20     80     13      0     33     93     93      0    0.0  0.000      0      0  0.000  0.000  0.000  0.000  0.000  0.000  0.000   3.98   0.00   0.00      0      0    253.3   0.10   0.00   0.28    0.43    0.29    0.18    0.01    0.00    0.00    0.00    0.00    0.00    0.00      0      0      0       0       1 12.86
 1981 183    19    17    7.0      3   0.22     90     13      0     40    103    103      0    0.0  0.000      0      0  0.171  0.448  0.000  0.000  0.000  0.000  0.000   3.90   0.00   0.00      0      0    244.1   0.11   0.00   0.29    0.50    0.36    0.24    0.01    0.00    0.00    0.00    0.00    0.00    0.00      0      0      0       0       1 13.24
 1981 184    20    18    7.0      3   0.23     99     13      0     47    112    112      0    0.0  0.000      0      0  0.454  0.636  0.000  0.000  0.000  0.000  0.000   3.98   0.00   0.00      0      0    234.6   0.12   0.00   0.30    0.56    0.42    0.30    0.02    0.00    0.00    0.00    0.00    0.00    0.00      0      0      0       0       1 15.05
 1981 185    21    19    7.0      3   0.28    125     14      0     55    139    139      0    0.0  0.000      0      0  0.000  0.000  0.000  0.000  0.000  0.000  0.000   3.76   0.00   0.00      0      0    225.7   0.15   0.00   0.31    0.63    0.49    0.36    0.03    0.00    0.00    0.00    0.00    0.00    0.00      0      0      0       0       1 14.41
 1981 186    22    20    8.0      3   0.34    154     15      0     63    169    169      0    0.0  0.000      0      0  0.000  0.000  0.000  0.000  0.000  0.000  0.000   3.68   0.00   0.00      0      0    217.7   0.17   0.00   0.33    0.71    0.56    0.42    0.04    0.00    0.00    0.00    0.00    0.00    0.00      0      0      0       0       1 14.12
 1981 187    23    21    8.0      3   0.40    190     17      0     74    207    207      0    0.0  0.000      0      0  0.000  0.000  0.000  0.000  0.000  0.000  0.000   3.62   0.00   0.00      0      0    209.8   0.21   0.00   0.36    0.82    0.66    0.50    0.06    0.00    0.00    0.00    0.00    0.00    0.00      0      0      0       0       2 15.32
 1981 188    24    22    9.0      3   0.44    217     19      0     96    237    237      0    0.0  0.000      0      0  0.017  0.345  0.000  0.000  0.000  0.000  0.000   3.48   0.00   0.00      0      0    204.6   0.23   0.00   0.37    1.02    0.86    0.65    0.09    0.00    0.00    0.00    0.00    0.00    0.00      0      0      0       0       2 15.63
 1981 189    25    23    9.0      3   0.48    242     22      0    111    264    264      0    0.0  0.000      0      0  0.157  0.438  0.000  0.000  0.000  0.000  0.000   3.47   0.00   0.00      0      0    199.2   0.25   0.00   0.38    1.10    1.02    0.77    0.11    0.00    0.00    0.00    0.00    0.00    0.00      0      0      0       0       3 14.68
 1981 190    26    24    9.0      3   0.52    268     26      0    126    294    294      0    0.0  0.000      0      0  0.012  0.342  0.000  0.000  0.000  0.000  0.000   3.33   0.00   0.00      0      0    195.5   0.27   0.00   0.38    1.10    1.20    0.91    0.14    0.00    0.00    0.00    0.00    0.00    0.00      0      0      0       0       3 12.28
 1981 191    27    25    9.0      3   0.56    293     31      0    143    324    324      0    0.0  0.000      0      0  0.120  0.414  0.000  0.000  0.000  0.000  0.000   3.32   0.00   0.00      0      0    191.2   0.29   0.00   0.39    1.25    1.35    1.02    0.17    0.00    0.00    0.00    0.00    0.00    0.00      0      0      0       0       4 12.10
 1981 192    28    26   10.0      3   0.64    342     42      0    146    383    383      0    0.0  0.000      0      0  0.000  0.000  0.000  0.000  0.000  0.000  0.000   3.30   0.00   0.00      0      0    186.2   0.33   0.00   0.40    1.28    1.38    1.05    0.17    0.00    0.00    0.00    0.00    0.00    0.00      0      0      0       0       5 12.76
 1981 193    29    27   10.0      3   0.72    395     56      0    149    450    450      0    0.0  0.000      0      0  0.000  0.000  0.000  0.000  0.000  0.000  0.000   3.24   0.00   0.00      0      0    181.4   0.37   0.00   0.41    1.30    1.40    1.07    0.18    0.00    0.00    0.00    0.00    0.00    0.00      0      0      0       0       5 12.82
 1981 194    30    28   10.0      3   0.82    463     76      0    163    539    540      0    0.0  0.000      1      0  0.000  0.000  0.000  0.000  0.000  0.000  0.000   3.22   0.00   0.00      0      1    176.3   0.42   0.00   0.42    1.39    1.50    1.18    0.23    0.00    0.00    0.00    0.00    0.00    0.00      0      0      0       0       6 14.78
 1981 195    31    29   11.0      3   0.92    533    100      0    170    633    636      0    0.0  0.000      3      0  0.000  0.000  0.000  0.000  0.000  0.000  0.000   3.15   0.00   0.01      0      3    171.8   0.47   0.00   0.43    1.44    1.54    1.23    0.25    0.00    0.00    0.00    0.00    0.00    0.00      0      0      0       0       7 13.76
 1981 196    32    30   11.0      3   1.01    603    128      0    178    730    736      0    0.0  0.000      6      0  0.000  0.000  0.000  0.000  0.000  0.000  0.000   3.08   0.00   0.01      0      6    168.0   0.52   0.00   0.43    1.50    1.60    1.29    0.28    0.00    0.00    0.00    0.00    0.00    0.00      0      0      0       0       8 12.70
 1981 197    33    31   11.0      3   1.11    675    159      0    194    834    843      0    0.0  0.000      9      0  0.000  0.000  0.000  0.000  0.000  0.000  0.000   3.03   0.00   0.01      0      9    164.5   0.57   0.00   0.44    1.62    1.71    1.40    0.33    0.01    0.00    0.00    0.00    0.00    0.00      0      0      0       0       9 12.20
 1981 198    34    32   12.0      3   1.16    713    239      0    200    952    963      0    0.0  0.000     11      0  0.000  0.000  0.000  0.000  0.000  0.000  0.000   2.98   0.00   0.01      0     11    162.8   0.60   0.00   0.45    1.66    1.75    1.44    0.35    0.01    0.00    0.00    0.00    0.00    0.00      0      0      0       0      10 12.45
 1981 199    35    33   12.0      3   1.21    752    332      0    206   1083   1098      0    0.0  0.000     14      0  0.000  0.000  0.000  0.000  0.000  0.000  0.000   2.93   0.00   0.01      0     14    161.2   0.63   0.00   0.46    1.69    1.80    1.49    0.38    0.01    0.00    0.00    0.00    0.00    0.00      0      0      0       0      11 12.30
 1981 200    36    34   12.0      3   1.26    787    423      0    212   1210   1229      0    0.0  0.000     18      0  0.000  0.000  0.000  0.000  0.000  0.000  0.000   2.87   0.00   0.01      0     18    159.8   0.65   0.00   0.46    1.73    1.84    1.54    0.40    0.01    0.00    0.00    0.00    0.00    0.00      0      0      0       0      12 12.40
 1981 201    37    35   13.0      3   1.30    819    509      0    218   1328   1350      0    0.0  0.000     22      0  0.000  0.000  0.000  0.000  0.000  0.000  0.000   2.81   0.00   0.02      0     22    158.6   0.67   0.00   0.47    1.76    1.88    1.58    0.42    0.01    0.00    0.00    0.00    0.00    0.00      0      0      0       0      13 12.30
 1981 202    38    36   13.0      3   1.34    853    610      0    225   1463   1493      0    0.0  0.000     30      0  0.000  0.000  0.000  0.000  0.000  0.000  0.000   2.78   0.00   0.02      0     30    157.4   0.69   0.00   0.48    1.79    1.93    1.63    0.45    0.01    0.00    0.00    0.00    0.00    0.00      0      0      0       0      14 13.00
 1981 203    39    37   13.0      3   1.38    883    698      0    231   1581   1618      0    0.0  0.000     37      0  0.000  0.000  0.000  0.000  0.000  0.000  0.000   2.72   0.00   0.02      0     37    156.4   0.71   0.00   0.49    1.82    1.97    1.68    0.47    0.01    0.00    0.00    0.00    0.00    0.00      0      0      0       0      15 11.65
 1981 204    40    38   14.0      3   1.42    917    802      0    238   1720   1771      0    0.0  0.000     51      0  0.000  0.000  0.000  0.000  0.000  0.000  0.000   2.70   0.00   0.03      0     51    155.2   0.74   0.00   0.50    1.85    2.02    1.74    0.50    0.02    0.00    0.00    0.00    0.00    0.00      0      0      0       0      16 12.00
 1981 205    41    39   14.0      3   1.47    955    914      0    246   1869   1941      0    0.0  0.000     72      0  0.000  0.000  0.000  0.000  0.000  0.000  0.000   2.67   0.00   0.04      0     72    154.1   0.76   0.00   0.50    1.86    2.07    1.80    0.54    0.02    0.00    0.00    0.00    0.00    0.00      0      0      0       0      17 12.35
 1981 206    42    40   14.0      3   1.51    987   1012      0    253   1999   2091      0    0.0  0.000     92      0  0.000  0.000  0.000  0.000  0.000  0.000  0.000   2.61   0.00   0.04      0     92    153.1   0.78   0.00   0.51    1.87    2.10    1.86    0.58    0.03    0.00    0.00    0.00    0.00    0.00      0      0      0       0      18 12.00
 1981 207    43    41   14.0      3   1.54   1010   1086      0    258   2096   2203      0    0.0  0.000    107      0  0.000  0.000  0.000  0.000  0.000  0.000  0.000   2.55   0.00   0.05      0    107    152.4   0.80   0.00   0.52    1.87    2.12    1.90    0.61    0.04    0.00    0.00    0.00    0.00    0.00      0      0      0       0      20 10.40
 1981 208    44    42   14.0      3   1.58   1044   1180      0    266   2224   2366      0    0.0  0.000    142      0  0.000  0.000  0.000  0.000  0.000  0.000  0.000   2.56   0.00   0.06      0    142    151.5   0.82   0.00   0.52    1.87    2.15    1.97    0.66    0.05    0.00    0.00    0.00    0.00    0.00      0      0      0       0      21 11.40
 1981 209    45    43   14.0      3   1.62   1078   1269      0    274   2347   2528      0    0.0  0.000    180      0  0.000  0.000  0.000  0.000  0.000  0.000  0.000   2.52   0.00   0.07      0    180    150.5   0.84   0.00   0.53    1.86    2.17    2.02    0.71    0.06    0.00    0.00    0.00    0.00    0.00      0      0      0       0      22 11.85
 1981 210    46    44   14.0      3   1.65   1103   1339      0    279   2442   2647      0    0.0  0.000    205      0  0.000  0.000  0.000  0.000  0.000  0.000  0.000   2.45   0.00   0.08      0    205    149.9   0.85   0.00   0.54    1.85    2.17    2.05    0.76    0.07    0.00    0.00    0.00    0.00    0.00      0      0      0       0      24 11.50
 1981 211    47    45   14.0      3   1.69   1131   1409      0    285   2540   2779      0    0.0  0.000    239      0  0.000  0.000  0.000  0.000  0.000  0.000  0.000   2.43   0.00   0.09      0    239    149.2   0.87   0.00   0.55    2.00    2.16    2.06    0.78    0.08    0.01    0.00    0.00    0.00    0.00      0      0      0       0      25 11.70
 1981 212    48    46   14.0      3   1.72   1159   1472      0    291   2631   2908      0    0.0  0.000    277      0  0.000  0.000  0.000  0.000  0.000  0.000  0.000   2.40   0.00   0.10      0    277    148.5   0.89   0.00   0.55    2.16    2.15    2.06    0.80    0.09    0.01    0.00    0.00    0.00    0.00      0      0      0       0      27 10.85
 1981 213    49    47   14.0      3   1.77   1197   1537      0    299   2734   3088      0    0.0  0.000    354      0  0.000  0.000  0.000  0.000  0.000  0.000  0.000   2.41   0.00   0.11      0    354    147.6   0.91   0.00   0.56    2.34    2.18    2.06    0.81    0.09    0.01    0.00    0.00    0.00    0.00      0      0      0       0      28 11.70
 1981 214    50    48   14.0      3   1.80   1223   1595      0    305   2818   3211      0    0.0  0.000    392      0  0.000  0.000  0.000  0.000  0.000  0.000  0.000   2.34   0.00   0.12      0    392    147.0   0.93   0.00   0.57    2.42    2.22    2.08    0.82    0.10    0.01    0.00    0.00    0.00    0.00      0      0      0       0      28 12.15
 1981 215    51    49   14.0      4   1.72   1208   1666      0    311   2874   3380      0    0.0  0.000    507      0  0.000  0.000  0.000  0.000  0.000  0.000  0.000   2.38   0.00   0.15      0    507    142.7   0.93   0.00   0.58    2.51    2.27    2.10    0.83    0.10    0.01    0.00    0.00    0.00    0.00      0      0      0       0      29 12.15
 1981 216    52    50   14.0      4   1.72   1192   1722      0    317   2913   3530      0    0.0  0.000    616      0  0.000  0.000  0.000  0.000  0.000  0.000  0.000   2.35   0.00   0.17      0    616    144.2   0.93   0.00   0.58    2.60    2.30    2.13    0.83    0.10    0.02    0.00    0.00    0.00    0.00      0      0      0       0      29 12.20
 1981 217    53    51   14.0      4   1.71   1174   1775      0    323   2950   3691      0    0.0  0.000    741      0  0.000  0.000  0.000  0.000  0.000  0.000  0.000   2.32   0.00   0.20      0    741    145.9   0.93   0.00   0.59    2.69    2.35    2.16    0.84    0.11    0.02    0.00    0.00    0.00    0.00      0      0      0       0      29 12.25
 1981 218    54    52   14.0      4   1.71   1156   1825      0    330   2981   3857      0    0.0  0.000    876      0  0.000  0.000  0.000  0.000  0.000  0.000  0.000   2.29   0.00   0.23      0    876    147.7   0.93   0.00   0.60    2.75    2.40    2.20    0.85    0.11    0.02    0.00    0.00    0.00    0.00      0      0      0       0      29 12.15
 1981 219    55    53   14.0      4   1.70   1137   1875      0    337   3012   4046      0    0.0  0.000   1033      0  0.000  0.000  0.000  0.000  0.000  0.000  0.000   2.27   0.00   0.26      0   1033    149.7   0.93   0.00   0.61    2.82    2.45    2.25    0.86    0.11    0.02    0.00    0.00    0.00    0.00      0      0      0       0      29 11.80
 1981 220    56    54   14.0      4   1.70   1117   1919      0    344   3036   4225      0    0.0  0.000   1189      0  0.000  0.000  0.000  0.000  0.000  0.000  0.000   2.25   0.00   0.28      0   1189    151.9   0.93   0.00   0.61    2.88    2.50    2.29    0.87    0.12    0.03    0.00    0.00    0.00    0.00      0      0      0       0      29 11.60
 1981 221    57    55   14.0      4   1.69   1096   1958      0    351   3055   4404      0    0.0  0.000   1350      0  0.000  0.000  0.000  0.000  0.000  0.000  0.000   2.24   0.00   0.31      0   1350    154.2   0.93   0.00   0.62    2.95    2.55    2.34    0.89    0.12    0.03    0.00    0.00    0.00    0.00      0      0      0       0      29 12.90
 1981 222    58    56   14.0      4   1.69   1075   1988      0    356   3063   4546      0    0.0  0.000   1484      0  0.000  0.000  0.000  0.000  0.000  0.000  0.000   2.23   0.00   0.33      0   1484    156.8   0.93   0.00   0.63    3.01    2.59    2.37    0.90    0.12    0.03    0.00    0.00    0.00    0.00      0      0      0       0      29 12.25
 1981 223    59    57   14.0      4   1.68   1052   2014      0    361   3066   4675      0    0.0  0.000   1609      0  0.000  0.000  0.000  0.000  0.000  0.000  0.000   2.23   0.00   0.34      0   1609    159.7   0.93   0.00   0.64    3.05    2.63    2.39    0.90    0.12    0.03    0.00    0.00    0.00    0.00      0      0      0       0      29 12.55
 1981 224    60    58   14.0      4   1.67   1028   2032      0    364   3061   4768      0    0.0  0.000   1707      0  0.000  0.000  0.000  0.000  0.000  0.000  0.000   2.23   0.00   0.36      0   1707    162.9   0.93   0.00   0.65    3.07    2.66    2.42    0.91    0.12    0.04    0.00    0.00    0.00    0.00      0      0      0       0      29 11.75
 1981 225    61    59   14.0      4   1.67   1004   2061      0    371   3064   4930      0    0.0  0.000   1866      0  0.000  0.000  0.000  0.000  0.000  0.000  0.000   2.23   0.00   0.38      0   1866    166.3   0.93   0.00   0.65    3.10    2.71    2.47    0.92    0.13    0.04    0.00    0.00    0.00    0.00      0      0      0       0      29 11.85
 1981 226    62    60   14.0      4   1.66    978   2088      0    377   3066   5092      0    0.0  0.000   2026      0  0.000  0.000  0.000  0.000  0.000  0.000  0.000   2.23   0.00   0.40      0   2026    170.1   0.93   0.00   0.65    3.13    2.75    2.52    0.94    0.13    0.04    0.00    0.00    0.00    0.00      0      0      0       0      29 12.35
 1981 227    63    61   14.0      4   1.66    952   2113      0    383   3065   5246      0    0.0  0.000   2182      0  0.000  0.000  0.000  0.000  0.000  0.000  0.000   2.23   0.00   0.42      0   2182    174.2   0.93   0.00   0.65    3.16    2.79    2.56    0.96    0.13    0.04    0.00    0.00    0.00    0.00      0      0      0       0      29 11.95
 1981 228    64    62   14.0      4   1.65    924   2130      0    386   3055   5347      0    0.0  0.000   2292      0  0.000  0.000  0.000  0.000  0.000  0.000  0.000   2.24   0.00   0.43      0   2292    178.8   0.93   0.00   0.65    3.18    2.82    2.59    0.97    0.14    0.05    0.00    0.00    0.00    0.00      0      0      0       0      29 11.40
 1981 229    65    63   14.0      5   1.62    924   2130    116    408   3055   5462    994   11.6  0.021   2408      7  0.000  0.000  0.000  0.000  0.000  0.000  0.000   2.17   4.81   0.44      0   2408    175.0   0.93   0.00   0.65    3.29    2.98    2.75    1.04    0.14    0.06    0.00    0.00    0.00    0.00      0      0      0       0      29 12.00
 1981 230    66    64   14.0      5   1.61    924   2130    232    437   3055   5578    994   23.3  0.042   2524      7  0.000  0.000  0.000  0.000  0.000  0.000  0.000   2.11   9.18   0.45      0   2524    174.5   0.93   0.00   0.65    3.43    3.18    2.96    1.12    0.16    0.07    0.00    0.00    0.00    0.00      0      0      0       0      29 12.40
 1981 231    67    65   14.0      5   1.61    924   2130    348    466   3055   5694    994   35.0  0.061   2639      7  0.000  0.000  0.000  0.000  0.000  0.000  0.000   2.04  13.17   0.46      0   2639    174.0   0.93   0.00   0.65    3.59    3.38    3.18    1.22    0.17    0.08    0.00    0.00    0.00    0.00      0      0      0       0      29 12.20
 1981 232    68    66   14.0      5   1.60    924   2130    463    487   3055   5810    994   46.6  0.080   2755      7  0.000  0.000  0.000  0.000  0.000  0.000  0.000   1.98  16.82   0.47      0   2755    173.5   0.93   0.00   0.65    3.70    3.53    3.32    1.29    0.18    0.09    0.00    0.00    0.00    0.00      0      0      0       0      29 12.10
 1981 233    69    67   14.0      5   1.60    924   2130    579    507   3055   5926    994   58.2  0.098   2871      7  0.000  0.000  0.000  0.000  0.000  0.000  0.000   1.92  20.18   0.48      0   2871    172.9   0.93   0.00   0.65    3.82    3.67    3.47    1.35    0.19    0.10    0.00    0.00    0.00    0.00      0      0      0       0      29 11.25
 1981 234    70    68   14.0      5   1.59    924   2130    695    517   3055   6042    994   69.9  0.115   2987      7  0.000  0.000  0.000  0.000  0.000  0.000  0.000   1.85  23.27   0.49      0   2987    172.3   0.93   0.00   0.65    3.85    3.74    3.55    1.39    0.20    0.11    0.00    0.00    0.00    0.00      0      0      0       0      29 11.65
 1981 235    71    69   14.0      5   1.59    924   2130    811    531   3055   6158    994   81.5  0.132   3103      7  0.000  0.000  0.000  0.000  0.000  0.000  0.000   1.74  26.14   0.50      0   3103    171.5   0.93   0.00   0.65    3.90    3.83    3.65    1.44    0.20    0.12    0.00    0.00    0.00    0.00      0      0      0       0      32 12.30
 1981 236    72    70   14.0      5   1.58    924   2130    927    541   3055   6273    994   93.2  0.148   3219      7  0.000  0.000  0.000  0.000  0.000  0.000  0.000   1.71  28.80   0.51      0   3219    170.7   0.93   0.00   0.65    3.94    3.89    3.73    1.48    0.21    0.12    0.00    0.00    0.00    0.00      0      0      0       0      35 11.65
 1981 237    73    71   14.0      5   1.57    924   2130   1043    556   3055   6389    994  104.8  0.163   3335      7  0.000  0.000  0.000  0.000  0.000  0.000  0.000   1.69  31.27   0.52      0   3335    169.8   0.93   0.00   0.65    4.00    3.98    3.83    1.54    0.22    0.13    0.00    0.00    0.00    0.00      0      0      0       0      37 12.20
 1981 238    74    72   14.0      5   1.56    924   2130   1159    568   3055   6505    994  116.5  0.178   3450      7  0.000  0.000  0.000  0.000  0.000  0.000  0.000   1.66  33.58   0.53      0   3450    168.7   0.93   0.00   0.65    4.00    4.00    3.93    1.59    0.22    0.14    0.00    0.00    0.00    0.00      0      0      0       0      40 12.40
 1981 239    75    73   14.0      5   1.55    924   2130   1274    585   3055   6621    994  128.1  0.192   3566      7  0.000  0.000  0.000  0.000  0.000  0.000  0.000   1.64  35.73   0.54      0   3566    167.7   0.93   0.00   0.65    4.00    4.00    4.00    1.66    0.24    0.15    0.00    0.00    0.00    0.00      0      0      0       0      43 12.10
 1981 240    76    74   14.0      5   1.54    924   2130   1390    606   3055   6737    994  139.8  0.206   3682      7  0.000  0.000  0.000  0.000  0.000  0.000  0.000   1.62  37.76   0.55      0   3682    166.5   0.93   0.00   0.65    4.00    4.00    4.00    1.75    0.25    0.16    0.00    0.00    0.00    0.00      0      0      0       0      46 12.20
 1981 241    77    75   14.0      5   1.53    924   2130   1506    626   3055   6853    994  151.4  0.220   3798      7  0.000  0.000  0.000  0.000  0.000  0.000  0.000   1.59  39.66   0.55      0   3798    165.2   0.93   0.00   0.65    4.00    4.00    4.00    1.83    0.26    0.17    0.00    0.00    0.00    0.00      0      0      0       0      49 12.00
 1981 242    78    76   14.0      5   1.51    924   2130   1622    639   3055   6969    994  163.1  0.233   3914      7  0.000  0.000  0.000  0.000  0.000  0.000  0.000   1.56  41.44   0.56      0   3914    163.8   0.93   0.00   0.65    4.00    4.00    4.00    1.89    0.27    0.18    0.00    0.00    0.00    0.00      0      0      0       0      52 12.15
 1981 243    79    77   14.0      5   1.50    924   2130   1738    647   3055   7084    994  174.7  0.245   4030      7  0.000  0.000  0.000  0.000  0.000  0.000  0.000   1.53  43.13   0.57      0   4030    162.3   0.93   0.00   0.65    4.00    4.00    4.00    1.93    0.28    0.19    0.00    0.00    0.00    0.00      0      0      0       0      55 12.30
 1981 244    80    78   14.0      5   1.49    924   2130   1854    652   3055   7200    994  186.4  0.257   4146      7  0.000  0.000  0.000  0.000  0.000  0.000  0.000   1.50  44.71   0.58      0   4146    160.8   0.93   0.00   0.65    4.00    4.00    4.00    1.96    0.28    0.19    0.00    0.00    0.00    0.00      0      0      0       0      59 10.95
 1981 245    81    79   14.0      5   1.47    924   2130   1970    682   3055   7316    994  198.0  0.269   4261      7  0.000  0.000  0.000  0.000  0.000  0.000  0.000   1.51  46.22   0.58      0   4261    159.1   0.93   0.00   0.65    4.00    4.00    4.00    2.09    0.31    0.21    0.00    0.00    0.00    0.00      0      0      0       0      62 12.30
 1981 246    82    80   14.0      5   1.45    924   2130   2085    695   3055   7432    994  209.7  0.281   4377      7  0.000  0.000  0.000  0.000  0.000  0.000  0.000   1.47  47.64   0.59      0   4377    157.3   0.93   0.00   0.65    4.00    4.00    4.00    2.16    0.32    0.22    0.00    0.00    0.00    0.00      0      0      0       0      65 11.90
 1981 247    83    81   14.0      5   1.44    924   2130   2201    712   3055   7548    994  221.3  0.292   4493      7  0.000  0.000  0.000  0.000  0.000  0.000  0.000   1.45  48.99   0.60      0   4493    155.4   0.93   0.00   0.65    4.00    4.00    4.00    2.24    0.34    0.24    0.00    0.00    0.00    0.00      0      0      0       0      69 11.95
 1981 248    84    82   14.0      5   1.42    924   2130   2317    721   3055   7664    994  233.0  0.302   4609      7  0.000  0.000  0.000  0.000  0.000  0.000  0.000   1.42  50.27   0.60      0   4609    153.4   0.93   0.00   0.65    4.00    4.00    4.00    2.29    0.34    0.25    0.00    0.00    0.00    0.00      0      0      0       0      72 11.35
 1981 249    85    83   14.0      5   1.40    924   2130   2433    734   3055   7780    994  244.6  0.313   4725      7  0.000  0.000  0.000  0.000  0.000  0.000  0.000   1.40  51.49   0.61      0   4725    151.3   0.93   0.00   0.65    4.00    4.00    4.00    2.36    0.36    0.26    0.00    0.00    0.00    0.00      0      0      0       0      76 12.00
 1981 250    86    84   14.0      5   1.38    924   2130   2549    745   3055   7895    994  256.3  0.323   4841      7  0.000  0.000  0.000  0.000  0.000  0.000  0.000   1.38  52.65   0.61      0   4841    148.9   0.93   0.00   0.65    3.99    4.00    4.00    2.43    0.37    0.27    0.00    0.00    0.00    0.00      0      0      0       0      80 12.20
 1981 251    87    85   14.0      5   1.35    924   2130   2665    764   3055   8011    994  267.9  0.333   4957      7  0.000  0.000  0.000  0.000  0.000  0.000  0.000   1.36  53.76   0.62      0   4957    146.3   0.93   0.00   0.65    3.99    4.00    4.00    2.55    0.40    0.29    0.00    0.00    0.00    0.00      0      0      0       0      83 12.75
 1981 252    88    86   14.0      5   1.33    924   2130   2781    779   3055   8127    994  279.6  0.342   5072      7  0.000  0.000  0.000  0.000  0.000  0.000  0.000   1.34  54.82   0.62      0   5072    143.5   0.93   0.00   0.65    4.00    4.00    4.00    2.65    0.42    0.31    0.00    0.00    0.00    0.00      0      0      0       0      87 13.00
 1981 253    89    87   14.0      5   1.30    924   2130   2896    790   3055   8243    994  291.2  0.351   5188      7  0.000  0.000  0.000  0.000  0.000  0.000  0.000   1.31  55.83   0.63      0   5188    140.7   0.93   0.00   0.65    4.00    4.00    4.00    2.71    0.44    0.33    0.00    0.00    0.00    0.00      0      0      0       0      91 12.60
 1981 254    90    88   14.0      5   1.27    924   2130   3012    793   3055   8359    994  302.9  0.360   5304      7  0.000  0.000  0.000  0.000  0.000  0.000  0.000   1.28  56.79   0.63      0   5304    137.8   0.93   0.00   0.65    3.99    4.00    4.00    2.74    0.44    0.34    0.00    0.00    0.00    0.00      0      0      0       0      95 11.85
 1981 255    91    89   14.0      5   1.25    924   2130   3128    803   3055   8475    994  314.5  0.369   5420      7  0.000  0.000  0.000  0.000  0.000  0.000  0.000   1.27  57.71   0.64      0   5420    134.9   0.93   0.00   0.65    3.99    4.00    4.00    2.81    0.46    0.35    0.00    0.00    0.00    0.00      0      0      0       0      99 11.65
 1981 256    92    90   14.0      5   1.22    924   2130   3244    807   3055   8591    994  326.2  0.378   5536      7  0.000  0.000  0.000  0.000  0.000  0.000  0.000   1.25  58.60   0.64      0   5536    131.8   0.93   0.00   0.65    3.98    4.00    4.00    2.84    0.47    0.36    0.00    0.00    0.00    0.00      0      0      0       0     103 11.60
 1981 257    93    91   14.0      5   1.19    924   2130   3360    803   3055   8706    994  337.8  0.386   5652      7  0.000  0.000  0.000  0.000  0.000  0.000  0.000   1.22  59.45   0.65      0   5652    128.6   0.93   0.00   0.65    3.96    3.98    3.98    2.82    0.47    0.36    0.00    0.00    0.00    0.00      0      0      0       0     107 11.35
 1981 258    94    92   14.0      5   1.16    924   2130   3476    810   3055   8822    994  349.5  0.394   5768      7  0.000  0.000  0.000  0.000  0.000  0.000  0.000   1.21  60.26   0.65      0   5768    125.0   0.93   0.00   0.65    3.94    3.99    4.00    2.87    0.48    0.38    0.00    0.00    0.00    0.00      0      0      0       0     111 12.50
 1981 259    95    93   14.0      5   1.12    924   2130   3592    816   3055   8938    994  361.1  0.402   5883      7  0.000  0.000  0.000  0.000  0.000  0.000  0.000   1.19  61.04   0.66      0   5883    121.2   0.93   0.00   0.65    3.93    3.98    4.00    2.92    0.50    0.39    0.00    0.00    0.00    0.00      0      0      0       0     115 12.45
 1981 260    96    94   14.0      5   1.08    924   2130   3707    826   3055   9054    994  372.8  0.409   5999      7  0.000  0.000  0.000  0.000  0.000  0.000  0.000   1.18  61.80   0.66      0   5999    117.4   0.93   0.00   0.65    3.91    3.97    4.00    2.99    0.53    0.42    0.00    0.00    0.00    0.00      0      0      0       0     119 11.90
 1981 261    97    95   14.0      5   1.05    924   2130   3823    824   3055   9170    994  384.4  0.417   6115      7  0.000  0.000  0.000  0.000  0.000  0.000  0.000   1.15  62.52   0.67      0   6115    113.4   0.93   0.00   0.65    3.89    3.95    3.99    2.99    0.53    0.42    0.00    0.00    0.00    0.00      0      0      0       0     123 11.80
 1981 262    98    96   14.0      5   1.01    924   2130   3939    825   3055   9286    994  396.1  0.424   6231      7  0.000  0.000  0.000  0.000  0.000  0.000  0.000   1.13  63.22   0.67      0   6231    109.3   0.93   0.00   0.65    3.88    3.93    3.99    3.01    0.54    0.43    0.00    0.00    0.00    0.00      0      0      0       0     127 11.75
 1981 263    99    97   14.0      5   0.97    924   2130   4055    832   3055   9402    994  407.7  0.431   6347      7  0.000  0.000  0.000  0.000  0.000  0.000  0.000   1.12  63.89   0.68      0   6347    104.9   0.93   0.00   0.65    3.86    3.92    3.97    3.06    0.57    0.46    0.00    0.00    0.00    0.00      0      0      0       0     131 12.05
 1981 264   100    98   14.0      5   0.92    924   2130   4171    839   3055   9517    994  419.4  0.438   6463      7  0.000  0.000  0.000  0.000  0.000  0.000  0.000   1.10  64.54   0.68      0   6463     99.8   0.93   0.00   0.65    3.85    3.91    3.96    3.10    0.61    0.50    0.00    0.00    0.00    0.00      0      0      0       0     136 13.40
 1981 265   101    99   14.0      5   0.88    924   2130   4287    836   3055   9633    994  431.0  0.445   6579      7  0.000  0.000  0.000  0.000  0.000  0.000  0.000   1.08  65.16   0.68      0   6579     95.1   0.93   0.00   0.65    3.83    3.89    3.94    3.09    0.61    0.50    0.00    0.00    0.00    0.00      0      0      0       0     140 12.05
 1981 266   102   100   14.0      5   0.83    924   2130   4403    837   3055   9749    994  442.7  0.452   6694      7  0.000  0.000  0.000  0.000  0.000  0.000  0.000   1.06  65.76   0.69      0   6694     90.0   0.93   0.00   0.65    3.82    3.87    3.93    3.09    0.63    0.52    0.00    0.00    0.00    0.00      0      0      0       0     144 12.20
 1981 267   103   101   14.0      5   0.79    924   2130   4518    839   3055   9865    994  454.3  0.458   6810      7  0.000  0.000  0.000  0.000  0.000  0.000  0.000   1.05  66.35   0.69      0   6810     85.0   0.93   0.00   0.65    3.80    3.86    3.91    3.09    0.65    0.55    0.00    0.00    0.00    0.00      0      0      0       0     148 11.75
 1981 268   104   102   14.0      5   0.74    924   2130   4634    838   3055   9981    994  466.0  0.464   6926      7  0.000  0.000  0.000  0.000  0.000  0.000  0.000   1.03  66.91   0.69      0   6926     79.8   0.93   0.00   0.65    3.79    3.84    3.90    3.08    0.66    0.56    0.00    0.00    0.00    0.00      0      0      0       0     152 11.75
 1981 269   105   103   14.0      5   0.74    924   2130   4634    838   3055   9981    994  466.0  0.464   6926      7  0.000  0.000  0.000  0.000  0.000  0.000  0.000   1.03  66.91   0.69      0   6926     79.8   0.93   0.00   0.65    3.77    3.83    3.88    3.07    0.67    0.57    0.00    0.00    0.00    0.00      0      0      0       0     152 10.95
 1981 270   106   104   14.0      5   0.74    924   2130   4634    838   3055   9981    994  466.0  0.464   6926      7  0.000  0.000  0.000  0.000  0.000  0.000  0.000   1.03  66.91   0.69      0   6926     79.8   0.93   0.00   0.65    3.76    3.81    3.87    3.05    0.68    0.58    0.00    0.00    0.00    0.00      0      0      0       0     152 11.40
 1981 271   107   105   14.0      5   0.74    924   2130   4634    838   3055   9981    994  466.0  0.464   6926      7  0.000  0.000  0.000  0.000  0.000  0.000  0.000   1.03  66.91   0.69      0   6926     79.8   0.93   0.00   0.65    3.74    3.79    3.85    3.04    0.69    0.59    0.00    0.00    0.00    0.00      0      0      0       0     152 12.30
 1981 272   108   106   14.0      5   0.74    924   2130   4634    838   3055   9981    994  466.0  0.464   6926      7  0.000  0.000  0.000  0.000  0.000  0.000  0.000   1.03  66.91   0.69      0   6926     79.8   0.93   0.00   0.65    3.73    3.78    3.83    3.04    0.70    0.60    0.00    0.00    0.00    0.00      0      0      0       0     152  0.00

*DSSAT Cropping System Model Ver. 4.7.5.008 -release  JAN 07, 2021 20:33:24

*RUN   2        : ERiMA DCC1                MZCER047 ETMZmelk    1
 MODEL          : MZCER047 - Maize
 EXPERIMENT     : ETMZmelk SN MELKSSAL
 DATA PATH      : C:\IRI\Python_Dash\ET_DSS_hist\TEST\
 TREATMENT  1   : ERiMA DCC1                MZCER047
  
!                                                                                                                                                                                                                                      Root Dens. (cm/cm3) by soil depth (cm):
!                                                                                                                                                                                                                                      0-5    5-15   15-20   20-35   35-50   50-65   65-81   81-97  97-118 118-200
@YEAR DOY   DAS   DAP   L#SD   GSTD   LAID   LWAD   SWAD   GWAD   RWAD   VWAD   CWAD   G#AD   GWGD   HIAD   PWAD   P#AD   WSPD   WSGD   NSTD   EWSD  PST1A  PST2A   KSTD   LN%D   SH%D   HIPD   PWDD   PWTD     SLAD   CHTD   CWID   RDPD    RL1D    RL2D    RL3D    RL4D    RL5D    RL6D    RL7D    RL8D    RL9D   RL10D   CDAD   LDAD   SDAD   SNW0C   SNW1C  DTTD
 1982 166     2     0    0.0      0   0.00      0      0      0      0      0      0      0    0.0  0.000      0      0  0.000  0.000  0.000  0.000  0.000  0.000  0.000   0.00   0.00   0.00      0      0      0.0   0.00   0.00   0.03    0.00    0.00    0.00    0.00    0.00    0.00    0.00    0.00    0.00    0.00      0      0      0       0       0 14.06
 1982 167     3     1    0.0      0   0.00      0      0      0      0      0      0      0    0.0  0.000      0      0  0.000  0.000  0.000  0.000  0.000  0.000  0.000   0.00   0.00   0.00      0      0      0.0   0.00   0.00   0.04    0.00    0.00    0.00    0.00    0.00    0.00    0.00    0.00    0.00    0.00      0      0      0       0       0 11.92
 1982 168     4     2    0.0      0   0.00      0      0      0      0      0      0      0    0.0  0.000      0      0  0.000  0.000  0.000  0.000  0.000  0.000  0.000   0.00   0.00   0.00      0      0      0.0   0.00   0.00   0.07    0.00    0.00    0.00    0.00    0.00    0.00    0.00    0.00    0.00    0.00      0      0      0       0       0 17.28
 1982 169     5     3    0.0      0   0.00      0      0      0      0      0      0      0    0.0  0.000      0      0  0.000  0.000  0.000  0.000  0.000  0.000  0.000   0.00   0.00   0.00      0      0      0.0   0.00   0.00   0.09    0.00    0.00    0.00    0.00    0.00    0.00    0.00    0.00    0.00    0.00      0      0      0       0       0 14.07
 1982 170     6     4    0.0      0   0.00      0      0      0      0      0      0      0    0.0  0.000      0      0  0.000  0.000  0.000  0.000  0.000  0.000  0.000   0.00   0.00   0.00      0      0      0.0   0.00   0.00   0.11    0.00    0.00    0.00    0.00    0.00    0.00    0.00    0.00    0.00    0.00      0      0      0       0       0 11.50
 1982 171     7     5    0.0      0   0.00      0      0      0      0      0      0      0    0.0  0.000      0      0  0.000  0.000  0.000  0.000  0.000  0.000  0.000   0.00   0.00   0.00      0      0      0.0   0.00   0.00   0.13    0.00    0.00    0.00    0.00    0.00    0.00    0.00    0.00    0.00    0.00      0      0      0       0       0 13.69
 1982 172     8     6    2.0      1   0.00     13     13      0     13     26     26      0    0.0  0.000      0      0  0.000  0.000  0.012  0.000  0.000  0.000  0.000   4.40   0.00   0.00      0      0     26.4   0.00   0.00   0.14    0.26    0.10    0.00    0.00    0.00    0.00    0.00    0.00    0.00    0.00      0      0      0       0       0 14.63
 1982 173     9     7    2.0      1   0.01     13     13      0     13     26     26      0    0.0  0.000      0      0  0.000  0.000  0.000  0.000  0.000  0.000  0.000   4.40   0.00   0.00      0      0     52.2   0.00   0.00   0.16    0.26    0.10    0.00    0.00    0.00    0.00    0.00    0.00    0.00    0.00      0      0      0       0       0 14.78
 1982 174    10     8    2.0      1   0.01     13     13      0     14     26     26      0    0.0  0.000      0      0  0.000  0.000  0.000  0.000  0.000  0.000  0.000   4.40   0.00   0.00      0      0     79.3   0.01   0.00   0.17    0.27    0.11    0.00    0.00    0.00    0.00    0.00    0.00    0.00    0.00      0      0      0       0       0 13.85
 1982 175    11     9    3.0      1   0.01     13     13      0     15     26     26      0    0.0  0.000      0      0  0.000  0.000  0.000  0.000  0.000  0.000  0.000   4.40   0.00   0.00      0      0    109.8   0.01   0.00   0.19    0.27    0.12    0.01    0.00    0.00    0.00    0.00    0.00    0.00    0.00      0      0      0       0       0 14.08
 1982 176    12    10    3.0      1   0.02     13     13      0     16     26     26      0    0.0  0.000      0      0  0.000  0.000  0.000  0.000  0.000  0.000  0.000   4.40   0.00   0.00      0      0    143.6   0.01   0.00   0.20    0.27    0.14    0.03    0.00    0.00    0.00    0.00    0.00    0.00    0.00      0      0      0       0       0 14.39
 1982 177    13    11    4.0      1   0.03     13     13      0     18     26     26      0    0.0  0.000      0      0  0.000  0.000  0.000  0.000  0.000  0.000  0.000   4.40   0.00   0.00      0      0    248.7   0.02   0.00   0.21    0.27    0.16    0.05    0.00    0.00    0.00    0.00    0.00    0.00    0.00      0      0      0       0       0 13.20
 1982 178    14    12    4.0      1   0.05     14     13      0     20     27     27      0    0.0  0.000      0      0  0.000  0.073  0.000  0.000  0.000  0.000  0.000   4.21   0.00   0.00      0      0    337.1   0.02   0.00   0.22    0.27    0.19    0.08    0.00    0.00    0.00    0.00    0.00    0.00    0.00      0      0      0       0       0 14.33
 1982 179    15    13    5.0      2   0.07     20     13      0     22     33     33      0    0.0  0.000      0      0  0.000  0.157  0.000  0.000  0.000  0.000  0.000   3.52   0.00   0.00      0      0    337.6   0.03   0.00   0.23    0.28    0.20    0.10    0.00    0.00    0.00    0.00    0.00    0.00    0.00      0      0      0       0       0 13.60
 1982 180    16    14    5.0      2   0.09     30     13      0     23     43     43      0    0.0  0.000      0      0  0.000  0.000  0.000  0.000  0.000  0.000  0.000   2.97   0.00   0.00      0      0    310.3   0.05   0.00   0.25    0.30    0.22    0.11    0.00    0.00    0.00    0.00    0.00    0.00    0.00      0      0      0       0       0 15.00
 1982 181    17    15    5.0      2   0.12     41     13      0     26     54     54      0    0.0  0.000      0      0  0.000  0.000  0.000  0.000  0.000  0.000  0.000   2.99   0.00   0.00      0      0    289.6   0.06   0.00   0.26    0.32    0.24    0.13    0.00    0.00    0.00    0.00    0.00    0.00    0.00      0      0      0       0       0 14.48
 1982 182    18    16    6.0      2   0.15     55     13      0     29     68     68      0    0.0  0.000      0      0  0.000  0.000  0.000  0.000  0.000  0.000  0.000   4.11   0.00   0.00      0      0    273.7   0.08   0.00   0.27    0.35    0.27    0.16    0.00    0.00    0.00    0.00    0.00    0.00    0.00      0      0      0       0       0 13.79
 1982 183    19    17    6.0      2   0.18     71     13      0     34     84     84      0    0.0  0.000      0      0  0.000  0.000  0.000  0.000  0.000  0.000  0.000   4.04   0.00   0.00      0      0    259.2   0.10   0.00   0.28    0.40    0.32    0.21    0.01    0.00    0.00    0.00    0.00    0.00    0.00      0      0      0       0       0 14.77
 1982 184    20    18    6.0      3   0.22     90     13      0     41    103    103      0    0.0  0.000      0      0  0.000  0.000  0.000  0.000  0.000  0.000  0.000   3.92   0.00   0.00      0      0    246.8   0.11   0.00   0.29    0.47    0.39    0.26    0.01    0.00    0.00    0.00    0.00    0.00    0.00      0      0      0       0       1 14.43
 1982 185    21    19    7.0      3   0.26    112     13      0     51    125    125      0    0.0  0.000      0      0  0.000  0.000  0.000  0.000  0.000  0.000  0.000   3.80   0.00   0.00      0      0    236.9   0.14   0.00   0.30    0.56    0.48    0.34    0.02    0.00    0.00    0.00    0.00    0.00    0.00      0      0      0       0       1 14.40
 1982 186    22    20    7.0      3   0.32    140     14      0     62    154    154      0    0.0  0.000      0      0  0.000  0.000  0.000  0.000  0.000  0.000  0.000   3.75   0.00   0.00      0      0    226.9   0.16   0.00   0.31    0.66    0.58    0.43    0.04    0.00    0.00    0.00    0.00    0.00    0.00      0      0      0       0       1 16.26
 1982 187    23    21    8.0      3   0.37    170     15      0     75    186    186      0    0.0  0.000      0      0  0.000  0.000  0.000  0.000  0.000  0.000  0.000   3.65   0.00   0.00      0      0    218.4   0.19   0.00   0.34    0.78    0.69    0.53    0.06    0.00    0.00    0.00    0.00    0.00    0.00      0      0      0       0       1 15.21
 1982 188    24    22    8.0      3   0.43    204     17      0     86    222    222      0    0.0  0.000      0      0  0.000  0.000  0.000  0.000  0.000  0.000  0.000   3.58   0.00   0.00      0      0    210.8   0.22   0.00   0.36    0.88    0.78    0.60    0.08    0.00    0.00    0.00    0.00    0.00    0.00      0      0      0       0       2 14.87
 1982 189    25    23    8.0      3   0.50    245     21      0    103    266    266      0    0.0  0.000      0      0  0.000  0.000  0.000  0.000  0.000  0.000  0.000   3.52   0.00   0.00      0      0    203.5   0.26   0.00   0.37    1.03    0.94    0.73    0.11    0.00    0.00    0.00    0.00    0.00    0.00      0      0      0       0       2 15.63
 1982 190    26    24    9.0      3   0.57    286     26      0    115    313    313      0    0.0  0.000      0      0  0.000  0.000  0.000  0.000  0.000  0.000  0.000   3.43   0.00   0.00      0      0    197.4   0.29   0.00   0.38    1.14    1.04    0.81    0.13    0.00    0.00    0.00    0.00    0.00    0.00      0      0      0       0       3 14.20
 1982 191    27    25    9.0      3   0.63    328     33      0    128    361    361      0    0.0  0.000      0      0  0.000  0.000  0.000  0.000  0.000  0.000  0.000   3.36   0.00   0.00      0      0    192.2   0.33   0.00   0.39    1.20    1.17    0.92    0.16    0.00    0.00    0.00    0.00    0.00    0.00      0      0      0       0       3 13.00
 1982 192    28    26    9.0      3   0.72    387     45      0    152    432    432      0    0.0  0.000      0      0  0.000  0.000  0.000  0.000  0.000  0.000  0.000   3.34   0.00   0.00      0      0    186.1   0.37   0.00   0.40    1.19    1.44    1.14    0.22    0.00    0.00    0.00    0.00    0.00    0.00      0      0      0       0       4 16.27
 1982 193    29    27   10.0      3   0.79    431     56      0    182    487    487      0    0.0  0.000      0      0  0.000  0.228  0.000  0.000  0.000  0.000  0.000   3.21   0.00   0.00      0      0    182.2   0.41   0.00   0.40    1.18    1.78    1.40    0.29    0.00    0.00    0.00    0.00    0.00    0.00      0      0      0       0       5 14.26
 1982 194    30    28   10.0      3   0.85    477     70      0    206    547    547      0    0.0  0.000      0      0  0.000  0.210  0.000  0.000  0.000  0.000  0.000   3.16   0.00   0.00      0      0    178.6   0.44   0.00   0.41    1.18    2.06    1.62    0.35    0.00    0.00    0.00    0.00    0.00    0.00      0      0      0       0       6 13.41
 1982 195    31    29   10.0      3   0.93    531     87      0    220    618    619      0    0.0  0.000      1      0  0.000  0.099  0.000  0.000  0.000  0.000  0.000   3.13   0.00   0.00      0      1    174.9   0.48   0.00   0.42    1.17    2.22    1.74    0.38    0.00    0.00    0.00    0.00    0.00    0.00      0      0      0       0       7 12.61
 1982 196    32    30   11.0      3   0.99    579    104      0    249    683    686      0    0.0  0.000      4      0  0.000  0.275  0.000  0.000  0.000  0.000  0.000   3.06   0.00   0.01      0      4    171.9   0.51   0.00   0.43    1.17    2.56    1.98    0.45    0.00    0.00    0.00    0.00    0.00    0.00      0      0      0       0       8 12.99
 1982 197    33    31   11.0      3   1.07    632    126      0    275    758    765      0    0.0  0.000      7      0  0.000  0.254  0.000  0.000  0.000  0.000  0.000   3.02   0.00   0.01      0      7    168.9   0.55   0.00   0.44    1.16    2.87    2.23    0.51    0.01    0.00    0.00    0.00    0.00    0.00      0      0      0       0       9 13.10
 1982 198    34    32   11.0      3   1.15    694    154      0    292    848    859      0    0.0  0.000     11      0  0.000  0.125  0.000  0.000  0.000  0.000  0.000   2.99   0.00   0.01      0     11    165.8   0.59   0.00   0.44    1.15    3.05    2.38    0.55    0.01    0.00    0.00    0.00    0.00    0.00      0      0      0       0      10 12.05
 1982 199    35    33   12.0      3   1.17    718    202      0    294    920    932      0    0.0  0.000     12      0  0.184  0.456  0.000  0.000  0.000  0.000  0.000   2.97   0.00   0.01      0     12    163.2   0.61   0.00   0.45    1.15    3.07    2.41    0.56    0.01    0.00    0.00    0.00    0.00    0.00      0      0      0       0      12 10.85
 1982 200    36    34   12.0      3   1.16    732    235      0    296    968    981      0    0.0  0.000     14      0  0.457  0.638  0.000  0.000  0.000  0.000  0.000   3.00   0.00   0.01      0     14    158.9   0.61   0.00   0.46    1.14    3.09    2.43    0.56    0.01    0.00    0.00    0.00    0.00    0.00      0      0      0       0      13 10.55
 1982 201    37    35   12.0      3   1.14    742    260      0    296   1003   1018      0    0.0  0.000     16      0  0.706  0.805  0.000  0.000  0.000  0.000  0.000   3.12   0.00   0.02      0     16    152.9   0.61   0.00   0.46    1.14    3.09    2.44    0.56    0.01    0.00    0.00    0.00    0.00    0.00      0      0      0       0      15 11.85
 1982 202    38    36   12.0      3   1.10    750    281      0    296   1031   1048      0    0.0  0.000     17      0  0.745  0.831  0.000  0.000  0.000  0.000  0.000   3.06   0.00   0.02      0     17    147.0   0.61   0.00   0.47    1.15    3.09    2.43    0.56    0.01    0.00    0.00    0.00    0.00    0.00      0      0      0       0      16 12.10
 1982 203    39    37   13.0      3   1.12    767    329      0    299   1096   1115      0    0.0  0.000     19      0  0.000  0.000  0.000  0.000  0.000  0.000  0.000   2.88   0.00   0.02      0     19    146.7   0.61   0.00   0.48    1.18    3.12    2.43    0.56    0.01    0.00    0.00    0.00    0.00    0.00      0      0      0       0      16 10.20
 1982 204    40    38   13.0      3   1.17    799    423      0    305   1222   1250      0    0.0  0.000     28      0  0.000  0.000  0.000  0.000  0.000  0.000  0.000   2.76   0.00   0.02      0     28    146.0   0.61   0.00   0.48    1.26    3.18    2.45    0.56    0.01    0.00    0.00    0.00    0.00    0.00      0      0      0       0      18 11.65
 1982 205    41    39   13.0      3   1.21    829    515      0    310   1344   1383      0    0.0  0.000     39      0  0.000  0.000  0.000  0.000  0.000  0.000  0.000   2.71   0.00   0.03      0     39    145.4   0.62   0.00   0.49    1.33    3.24    2.49    0.56    0.01    0.00    0.00    0.00    0.00    0.00      0      0      0       0      19 11.85
 1982 206    42    40   14.0      3   1.24    855    595      0    315   1450   1499      0    0.0  0.000     49      0  0.000  0.000  0.000  0.000  0.000  0.000  0.000   2.65   0.00   0.03      0     49    144.8   0.64   0.00   0.50    1.38    3.29    2.53    0.56    0.01    0.00    0.00    0.00    0.00    0.00      0      0      0       0      21 12.05
 1982 207    43    41   14.0      3   1.28    885    688      0    322   1572   1638      0    0.0  0.000     66      0  0.000  0.000  0.000  0.000  0.000  0.000  0.000   2.63   0.00   0.04      0     66    144.2   0.66   0.00   0.51    1.44    3.34    2.58    0.57    0.01    0.00    0.00    0.00    0.00    0.00      0      0      0       0      22 12.20
 1982 208    44    42   14.0      3   1.32    916    783      0    328   1699   1788      0    0.0  0.000     89      0  0.000  0.000  0.000  0.000  0.000  0.000  0.000   2.60   0.00   0.05      0     89    143.6   0.68   0.00   0.51    1.50    3.40    2.64    0.58    0.01    0.00    0.00    0.00    0.00    0.00      0      0      0       0      24 12.80
 1982 209    45    43   14.0      3   1.36    949    876      0    335   1825   1944      0    0.0  0.000    120      0  0.000  0.000  0.000  0.000  0.000  0.000  0.000   2.56   0.00   0.06      0    120    143.0   0.70   0.00   0.52    1.55    3.46    2.70    0.59    0.01    0.00    0.00    0.00    0.00    0.00      0      0      0       0      26 12.45
 1982 210    46    44   14.0      3   1.40    982    964      0    342   1945   2102      0    0.0  0.000    156      0  0.000  0.000  0.000  0.000  0.000  0.000  0.000   2.53   0.00   0.07      0    156    142.4   0.72   0.00   0.53    1.60    3.51    2.76    0.61    0.01    0.00    0.00    0.00    0.00    0.00      0      0      0       0      27 12.40
 1982 211    47    45   14.0      3   1.43   1008   1034      0    348   2042   2226      0    0.0  0.000    184      0  0.000  0.000  0.000  0.000  0.000  0.000  0.000   2.46   0.00   0.08      0    184    141.9   0.74   0.00   0.54    1.65    3.55    2.80    0.62    0.02    0.00    0.00    0.00    0.00    0.00      0      0      0       0      29 11.70
 1982 212    48    46   14.0      3   1.47   1037   1106      0    354   2143   2366      0    0.0  0.000    223      0  0.000  0.000  0.000  0.000  0.000  0.000  0.000   2.44   0.00   0.09      0    223    141.4   0.76   0.00   0.55    1.72    3.58    2.84    0.64    0.02    0.00    0.00    0.00    0.00    0.00      0      0      0       0      31 12.10
 1982 213    49    47   14.0      3   1.50   1064   1168      0    359   2233   2492      0    0.0  0.000    259      0  0.000  0.000  0.000  0.000  0.000  0.000  0.000   2.39   0.00   0.10      0    259    140.9   0.77   0.00   0.55    1.77    3.61    2.87    0.66    0.02    0.00    0.00    0.00    0.00    0.00      0      0      0       0      33 11.40
 1982 214    50    48   14.0      3   1.53   1087   1221      0    363   2308   2597      0    0.0  0.000    289      0  0.000  0.000  0.000  0.000  0.000  0.000  0.000   2.34   0.00   0.11      0    289    140.5   0.79   0.00   0.56    1.81    3.63    2.90    0.67    0.02    0.00    0.00    0.00    0.00    0.00      0      0      0       0      34 10.60
 1982 215    51    49   14.0      3   1.57   1125   1280      0    371   2404   2774      0    0.0  0.000    369      0  0.000  0.000  0.000  0.000  0.000  0.000  0.000   2.38   0.00   0.13      0    369    139.8   0.81   0.00   0.57    1.89    3.68    2.95    0.69    0.02    0.00    0.00    0.00    0.00    0.00      0      0      0       0      36 12.25
 1982 216    52    50   14.0      4   1.57   1110   1351      0    378   2461   2956      0    0.0  0.000    494      0  0.000  0.000  0.000  0.000  0.000  0.000  0.000   2.40   0.00   0.17      0    494    141.7   0.81   0.00   0.57    1.95    3.72    2.99    0.71    0.02    0.00    0.00    0.00    0.00    0.00      0      0      0       0      38 12.50
 1982 217    53    51   14.0      4   1.57   1094   1407      0    383   2501   3113      0    0.0  0.000    612      0  0.000  0.000  0.000  0.000  0.000  0.000  0.000   2.37   0.00   0.20      0    612    143.7   0.81   0.00   0.58    2.00    3.76    3.02    0.73    0.03    0.00    0.00    0.00    0.00    0.00      0      0      0       0      38 13.00
 1982 218    54    52   14.0      4   1.57   1078   1453      0    388   2531   3259      0    0.0  0.000    728      0  0.000  0.000  0.000  0.000  0.000  0.000  0.000   2.34   0.00   0.22      0    728    145.9   0.81   0.00   0.59    2.04    3.79    3.06    0.75    0.03    0.00    0.00    0.00    0.00    0.00      0      0      0       0      38 12.05
 1982 219    55    53   14.0      4   1.57   1060   1492      0    393   2552   3391      0    0.0  0.000    839      0  0.000  0.000  0.000  0.000  0.000  0.000  0.000   2.32   0.00   0.25      0    839    148.3   0.81   0.00   0.60    2.08    3.81    3.08    0.76    0.03    0.00    0.00    0.00    0.00    0.00      0      0      0       0      38 11.55
 1982 220    56    54   14.0      4   1.57   1042   1525      0    397   2567   3515      0    0.0  0.000    948      0  0.000  0.000  0.000  0.000  0.000  0.000  0.000   2.31   0.00   0.27      0    948    150.9   0.81   0.00   0.60    2.11    3.84    3.11    0.78    0.03    0.00    0.00    0.00    0.00    0.00      0      0      0       0      38 10.90
 1982 221    57    55   14.0      4   1.57   1023   1552      0    401   2575   3624      0    0.0  0.000   1049      0  0.000  0.000  0.000  0.000  0.000  0.000  0.000   2.30   0.00   0.29      0   1049    153.7   0.81   0.00   0.61    2.13    3.86    3.14    0.80    0.03    0.00    0.00    0.00    0.00    0.00      0      0      0       0      38 11.85
 1982 222    58    56   14.0      4   1.57   1004   1584      0    406   2588   3772      0    0.0  0.000   1184      0  0.000  0.000  0.000  0.000  0.000  0.000  0.000   2.29   0.00   0.31      0   1184    156.7   0.81   0.00   0.62    2.16    3.89    3.17    0.82    0.04    0.00    0.00    0.00    0.00    0.00      0      0      0       0      38 11.90
 1982 223    59    57   14.0      4   1.57    983   1616      0    412   2599   3927      0    0.0  0.000   1328      0  0.000  0.000  0.000  0.000  0.000  0.000  0.000   2.28   0.00   0.34      0   1328    160.0   0.81   0.00   0.63    2.18    3.92    3.21    0.84    0.04    0.01    0.00    0.00    0.00    0.00      0      0      0       0      38 12.45
 1982 224    60    58   14.0      4   1.57    962   1641      0    416   2603   4057      0    0.0  0.000   1454      0  0.000  0.000  0.000  0.000  0.000  0.000  0.000   2.27   0.00   0.36      0   1454    163.2   0.81   0.00   0.64    2.20    3.94    3.24    0.86    0.04    0.01    0.00    0.00    0.00    0.00      0      0      0       0      38 12.05
 1982 225    61    59   14.0      4   1.56    939   1666      0    421   2605   4193      0    0.0  0.000   1588      0  0.000  0.000  0.000  0.000  0.000  0.000  0.000   2.27   0.00   0.38      0   1588    166.5   0.81   0.00   0.64    2.21    3.96    3.28    0.89    0.05    0.01    0.00    0.00    0.00    0.00      0      0      0       0      38 11.75
 1982 226    62    60   14.0      4   1.56    916   1680      0    423   2597   4266      0    0.0  0.000   1670      0  0.000  0.000  0.000  0.000  0.000  0.000  0.000   2.28   0.00   0.39      0   1670    170.2   0.81   0.00   0.65    2.21    3.96    3.29    0.90    0.05    0.01    0.00    0.00    0.00    0.00      0      0      0       0      38 10.35
 1982 227    63    61   14.0      4   1.55    892   1703      0    428   2595   4400      0    0.0  0.000   1804      0  0.000  0.000  0.000  0.000  0.000  0.000  0.000   2.28   0.00   0.41      0   1804    174.2   0.81   0.00   0.66    2.22    3.98    3.32    0.93    0.05    0.02    0.00    0.00    0.00    0.00      0      0      0       0      38 11.65
 1982 228    64    62   14.0      4   1.55    868   1725      0    433   2593   4533      0    0.0  0.000   1940      0  0.000  0.000  0.000  0.000  0.000  0.000  0.000   2.28   0.00   0.43      0   1940    178.6   0.81   0.00   0.66    2.23    4.00    3.36    0.96    0.06    0.02    0.00    0.00    0.00    0.00      0      0      0       0      38 12.25
 1982 229    65    63   14.0      4   1.54    842   1744      0    437   2586   4650      0    0.0  0.000   2064      0  0.000  0.000  0.000  0.000  0.000  0.000  0.000   2.29   0.00   0.44      0   2064    183.4   0.81   0.00   0.66    2.23    4.00    3.39    0.98    0.06    0.03    0.00    0.00    0.00    0.00      0      0      0       0      38 11.85
 1982 230    66    64   14.0      5   1.51    842   1744    107    458   2586   4757    919   11.6  0.022   2171      7  0.000  0.000  0.000  0.000  0.000  0.000  0.000   2.22   4.93   0.46      0   2171    179.5   0.81   0.00   0.66    2.25    4.00    3.55    1.09    0.08    0.04    0.00    0.00    0.00    0.00      0      0      0       0      38 12.00
 1982 231    67    65   14.0      5   1.51    842   1744    214    457   2586   4864    919   23.3  0.044   2278      7  0.000  0.000  0.000  0.000  0.000  0.000  0.000   2.15   9.40   0.47      0   2278    179.1   0.81   0.00   0.66    2.24    3.99    3.54    1.09    0.08    0.04    0.00    0.00    0.00    0.00      0      0      0       0      38 11.15
 1982 232    68    66   14.0      5   1.50    842   1744    321    473   2586   4971    919   34.9  0.065   2385      7  0.000  0.000  0.000  0.000  0.000  0.000  0.000   2.08  13.46   0.48      0   2385    178.6   0.81   0.00   0.66    2.28    4.00    3.65    1.18    0.10    0.06    0.00    0.00    0.00    0.00      0      0      0       0      38 12.00
 1982 233    69    67   14.0      5   1.50    842   1744    428    492   2586   5078    919   46.6  0.084   2492      7  0.000  0.000  0.000  0.000  0.000  0.000  0.000   2.01  17.18   0.49      0   2492    178.1   0.81   0.00   0.66    2.33    4.00    3.78    1.27    0.12    0.07    0.00    0.00    0.00    0.00      0      0      0       0      38 11.85
 1982 234    70    68   14.0      5   1.49    842   1744    535    514   2586   5185    919   58.2  0.103   2599      7  0.000  0.000  0.000  0.000  0.000  0.000  0.000   1.94  20.59   0.50      0   2599    177.4   0.81   0.00   0.66    2.41    4.00    3.93    1.38    0.14    0.09    0.00    0.00    0.00    0.00      0      0      0       0      38 12.35
 1982 235    71    69   14.0      5   1.49    842   1744    642    531   2586   5292    919   69.9  0.121   2706      7  0.000  0.000  0.000  0.000  0.000  0.000  0.000   1.87  23.73   0.51      0   2706    176.7   0.81   0.00   0.66    2.48    4.00    4.00    1.46    0.15    0.10    0.00    0.00    0.00    0.00      0      0      0       0      38 12.25
 1982 236    72    70   14.0      5   1.48    842   1744    749    542   2586   5400    919   81.5  0.139   2813      7  0.000  0.000  0.000  0.000  0.000  0.000  0.000   1.75  26.63   0.52      0   2813    176.0   0.81   0.00   0.66    2.53    4.00    4.00    1.52    0.17    0.11    0.00    0.00    0.00    0.00      0      0      0       0      41 11.55
 1982 237    73    71   14.0      5   1.47    842   1744    856    557   2586   5507    919   93.2  0.155   2920      7  0.000  0.000  0.000  0.000  0.000  0.000  0.000   1.72  29.32   0.53      0   2920    175.1   0.81   0.00   0.66    2.53    4.00    4.00    1.61    0.18    0.12    0.00    0.00    0.00    0.00      0      0      0       0      43 12.50
 1982 238    74    72   14.0      5   1.47    842   1744    963    571   2586   5614    919  104.8  0.172   3027      7  0.000  0.000  0.000  0.000  0.000  0.000  0.000   1.69  31.82   0.54      0   3027    174.1   0.81   0.00   0.66    2.54    4.00    4.00    1.69    0.20    0.14    0.00    0.00    0.00    0.00      0      0      0       0      46 12.25
 1982 239    75    73   14.0      5   1.46    842   1744   1070    585   2586   5721    919  116.5  0.187   3134      7  0.000  0.000  0.000  0.000  0.000  0.000  0.000   1.67  34.15   0.55      0   3134    173.1   0.81   0.00   0.66    2.55    4.00    4.00    1.78    0.21    0.15    0.00    0.00    0.00    0.00      0      0      0       0      49 12.65
 1982 240    76    74   14.0      5   1.45    842   1744   1177    602   2586   5828    919  128.1  0.202   3241      7  0.000  0.000  0.000  0.000  0.000  0.000  0.000   1.65  36.32   0.56      0   3241    171.9   0.81   0.00   0.66    2.58    4.00    4.00    1.87    0.23    0.17    0.00    0.00    0.00    0.00      0      0      0       0      52 12.10
 1982 241    77    75   14.0      5   1.44    842   1744   1284    626   2586   5935    919  139.8  0.216   3348      7  0.000  0.000  0.000  0.000  0.000  0.000  0.000   1.63  38.36   0.56      0   3348    170.6   0.81   0.00   0.66    2.62    4.00    4.00    2.02    0.26    0.19    0.00    0.00    0.00    0.00      0      0      0       0      55 12.55
 1982 242    78    76   14.0      5   1.42    842   1744   1391    652   2586   6042    919  151.4  0.230   3455      7  0.000  0.000  0.000  0.000  0.000  0.000  0.000   1.61  40.27   0.57      0   3455    169.2   0.81   0.00   0.66    2.67    4.00    4.00    2.17    0.30    0.22    0.00    0.00    0.00    0.00      0      0      0       0      58 13.10
 1982 243    79    77   14.0      5   1.41    842   1744   1498    678   2586   6149    919  163.1  0.244   3562      7  0.000  0.000  0.000  0.000  0.000  0.000  0.000   1.58  42.06   0.58      0   3562    167.6   0.81   0.00   0.66    2.66    4.00    4.00    2.35    0.33    0.25    0.00    0.00    0.00    0.00      0      0      0       0      61 12.80
 1982 244    80    78   14.0      5   1.40    842   1744   1605    692   2586   6256    919  174.7  0.257   3669      7  0.000  0.000  0.000  0.000  0.000  0.000  0.000   1.54  43.75   0.59      0   3669    166.1   0.81   0.00   0.66    2.65    4.00    4.00    2.44    0.35    0.27    0.00    0.00    0.00    0.00      0      0      0       0      65 11.90
 1982 245    81    79   14.0      5   1.38    842   1744   1713    709   2586   6363    919  186.4  0.269   3776      7  0.000  0.000  0.000  0.000  0.000  0.000  0.000   1.52  45.35   0.59      0   3776    164.4   0.81   0.00   0.66    2.65    4.00    4.00    2.56    0.38    0.29    0.00    0.00    0.00    0.00      0      0      0       0      68 12.50
 1982 246    82    80   14.0      5   1.37    842   1744   1820    724   2586   6470    919  198.0  0.281   3883      7  0.000  0.000  0.000  0.000  0.000  0.000  0.000   1.49  46.85   0.60      0   3883    162.4   0.81   0.00   0.66    2.65    4.00    4.00    2.66    0.40    0.31    0.00    0.00    0.00    0.00      0      0      0       0      72 13.25
 1982 247    83    81   14.0      5   1.35    842   1744   1927    739   2586   6577    919  209.7  0.293   3990      7  0.000  0.000  0.000  0.000  0.000  0.000  0.000   1.47  48.28   0.61      0   3990    160.4   0.81   0.00   0.66    2.66    4.00    4.00    2.76    0.43    0.34    0.00    0.00    0.00    0.00      0      0      0       0      75 12.75
 1982 248    84    82   14.0      5   1.33    842   1744   2034    756   2586   6684    919  221.4  0.304   4098      7  0.000  0.000  0.000  0.000  0.000  0.000  0.000   1.45  49.63   0.61      0   4098    158.3   0.81   0.00   0.66    2.65    4.00    4.00    2.88    0.46    0.36    0.00    0.00    0.00    0.00      0      0      0       0      79 12.00
 1982 249    85    83   14.0      5   1.31    842   1744   2141    771   2586   6791    919  233.0  0.315   4205      7  0.000  0.000  0.000  0.000  0.000  0.000  0.000   1.42  50.91   0.62      0   4205    156.0   0.81   0.00   0.66    2.64    4.00    4.00    2.99    0.48    0.38    0.00    0.00    0.00    0.00      0      0      0       0      83 12.75
 1982 250    86    84   14.0      5   1.29    842   1744   2248    797   2586   6898    919  244.6  0.326   4312      7  0.000  0.000  0.000  0.000  0.000  0.000  0.000   1.42  52.13   0.63      0   4312    153.6   0.81   0.00   0.66    2.64    4.00    4.00    3.16    0.53    0.42    0.00    0.00    0.00    0.00      0      0      0       0      87 12.30
 1982 251    87    85   14.0      5   1.27    842   1744   2355    820   2586   7005    919  256.3  0.336   4419      7  0.000  0.000  0.000  0.000  0.000  0.000  0.000   1.39  53.29   0.63      0   4419    151.2   0.81   0.00   0.66    2.65    4.00    4.00    3.30    0.57    0.46    0.00    0.00    0.00    0.00      0      0      0       0      91 11.70
 1982 252    88    86   14.0      5   1.25    842   1744   2462    844   2586   7112    919  267.9  0.346   4526      7  0.000  0.000  0.000  0.000  0.000  0.000  0.000   1.37  54.40   0.64      0   4526    148.5   0.81   0.00   0.66    2.66    4.00    4.00    3.46    0.61    0.50    0.00    0.00    0.00    0.00      0      0      0       0      95 12.40
 1982 253    89    87   14.0      5   1.23    842   1744   2569    859   2586   7219    919  279.6  0.356   4633      7  0.000  0.000  0.000  0.000  0.000  0.000  0.000   1.34  55.45   0.64      0   4633    145.6   0.81   0.00   0.66    2.67    4.00    4.00    3.56    0.64    0.52    0.00    0.00    0.00    0.00      0      0      0       0      99 12.70
 1982 254    90    88   14.0      5   1.20    842   1744   2676    873   2586   7326    919  291.2  0.365   4740      7  0.000  0.000  0.000  0.000  0.000  0.000  0.000   1.31  56.46   0.65      0   4740    142.4   0.81   0.00   0.66    2.67    4.00    4.00    3.66    0.68    0.55    0.00    0.00    0.00    0.00      0      0      0       0     103 13.35
 1982 255    91    89   14.0      5   1.17    842   1744   2783    880   2586   7433    919  302.9  0.374   4847      7  0.000  0.000  0.000  0.000  0.000  0.000  0.000   1.28  57.42   0.65      0   4847    139.2   0.81   0.00   0.66    2.66    3.99    4.00    3.72    0.70    0.57    0.00    0.00    0.00    0.00      0      0      0       0     108 12.35
 1982 256    92    90   14.0      5   1.15    842   1744   2890    882   2586   7540    919  314.5  0.383   4954      7  0.000  0.000  0.000  0.000  0.000  0.000  0.000   1.26  58.34   0.66      0   4954    136.1   0.81   0.00   0.66    2.65    3.99    4.00    3.74    0.71    0.58    0.00    0.00    0.00    0.00      0      0      0       0     112 11.40
 1982 257    93    91   14.0      5   1.12    842   1744   2997    883   2586   7647    919  326.2  0.392   5061      7  0.000  0.000  0.000  0.000  0.000  0.000  0.000   1.24  59.22   0.66      0   5061    132.9   0.81   0.00   0.66    2.63    3.97    4.00    3.75    0.71    0.58    0.00    0.00    0.00    0.00      0      0      0       0     116 11.50
 1982 258    94    92   14.0      5   1.09    842   1744   3104    889   2586   7754    919  337.8  0.400   5168      7  0.000  0.000  0.000  0.000  0.000  0.000  0.000   1.23  60.06   0.67      0   5168    129.5   0.81   0.00   0.66    2.62    3.95    4.00    3.81    0.74    0.60    0.00    0.00    0.00    0.00      0      0      0       0     121 11.65
 1982 259    95    93   14.0      5   1.06    842   1744   3211    889   2586   7861    919  349.5  0.408   5275      7  0.000  0.000  0.000  0.000  0.000  0.000  0.000   1.20  60.87   0.67      0   5275    126.0   0.81   0.00   0.66    2.61    3.93    4.00    3.82    0.74    0.61    0.00    0.00    0.00    0.00      0      0      0       0     125 11.10
 1982 260    96    94   14.0      5   1.03    842   1744   3318    904   2586   7968    919  361.1  0.416   5382      7  0.000  0.000  0.000  0.000  0.000  0.000  0.000   1.20  61.65   0.68      0   5382    122.1   0.81   0.00   0.66    2.60    3.92    4.00    3.92    0.79    0.64    0.00    0.00    0.00    0.00      0      0      0       0     130 12.10
 1982 261    97    95   14.0      5   0.99    842   1744   3425    922   2586   8075    919  372.8  0.424   5489      7  0.000  0.000  0.000  0.000  0.000  0.000  0.000   1.18  62.40   0.68      0   5489    117.9   0.81   0.00   0.66    2.60    3.91    4.00    4.00    0.84    0.69    0.00    0.00    0.00    0.00      0      0      0       0     134 12.50
 1982 262    98    96   14.0      5   0.96    842   1744   3532    928   2586   8182    919  384.4  0.432   5596      7  0.000  0.000  0.000  0.000  0.000  0.000  0.000   1.15  63.12   0.68      0   5596    113.8   0.81   0.00   0.66    2.59    3.89    4.00    4.00    0.86    0.71    0.00    0.00    0.00    0.00      0      0      0       0     139 11.70
 1982 263    99    97   14.0      5   0.92    842   1744   3639    931   2586   8289    919  396.1  0.439   5703      7  0.000  0.000  0.000  0.000  0.000  0.000  0.000   1.13  63.81   0.69      0   5703    109.2   0.81   0.00   0.66    2.58    3.88    4.00    4.00    0.88    0.73    0.00    0.00    0.00    0.00      0      0      0       0     144 12.55
 1982 264   100    98   14.0      5   0.87    842   1744   3746    938   2586   8396    919  407.7  0.446   5810      7  0.000  0.000  0.000  0.000  0.000  0.000  0.000   1.11  64.48   0.69      0   5810    103.7   0.81   0.00   0.66    2.57    3.86    4.00    4.00    0.91    0.75    0.00    0.00    0.00    0.00      0      0      0       0     148 14.10
 1982 265   101    99   14.0      5   0.83    842   1744   3853    940   2586   8503    919  419.4  0.453   5917      7  0.000  0.000  0.000  0.000  0.000  0.000  0.000   1.09  65.12   0.70      0   5917     98.5   0.81   0.00   0.66    2.56    3.85    3.99    4.00    0.93    0.77    0.00    0.00    0.00    0.00      0      0      0       0     153 13.00
 1982 266   102   100   14.0      5   0.78    842   1744   3960    943   2586   8611    919  431.0  0.460   6024      7  0.000  0.000  0.000  0.000  0.000  0.000  0.000   1.07  65.74   0.70      0   6024     93.2   0.81   0.00   0.66    2.55    3.83    3.98    4.00    0.95    0.79    0.00    0.00    0.00    0.00      0      0      0       0     158 12.60
 1982 267   103   101   14.0      5   0.74    842   1744   4067    952   2586   8718    919  442.7  0.467   6131      7  0.000  0.000  0.000  0.000  0.000  0.000  0.000   1.06  66.34   0.70      0   6131     87.8   0.81   0.00   0.66    2.55    3.82    3.97    4.00    1.00    0.83    0.00    0.00    0.00    0.00      0      0      0       0     162 12.40
 1982 268   104   102   14.0      5   0.69    842   1744   4174    958   2586   8825    919  454.3  0.473   6238      7  0.000  0.000  0.000  0.000  0.000  0.000  0.000   1.04  66.91   0.71      0   6238     81.9   0.81   0.00   0.66    2.54    3.81    3.96    4.00    1.04    0.87    0.00    0.00    0.00    0.00      0      0      0       0     167 12.80
 1982 269   105   103   14.0      5   0.69    842   1744   4174    958   2586   8825    919  454.3  0.473   6238      7  0.000  0.000  0.000  0.000  0.000  0.000  0.000   1.04  66.91   0.71      0   6238     81.9   0.81   0.00   0.66    2.52    3.80    3.95    4.00    1.09    0.91    0.00    0.00    0.00    0.00      0      0      0       0     167 12.80
 1982 270   106   104   14.0      5   0.69    842   1744   4174    958   2586   8825    919  454.3  0.473   6238      7  0.000  0.000  0.000  0.000  0.000  0.000  0.000   1.04  66.91   0.71      0   6238     81.9   0.81   0.00   0.66    2.51    3.79    3.93    4.00    1.13    0.94    0.00    0.00    0.00    0.00      0      0      0       0     167 13.20
 1982 271   107   105   14.0      5   0.69    842   1744   4174    958   2586   8825    919  454.3  0.473   6238      7  0.000  0.000  0.000  0.000  0.000  0.000  0.000   1.04  66.91   0.71      0   6238     81.9   0.81   0.00   0.66    2.50    3.78    3.92    4.00    1.17    0.98    0.00    0.00    0.00    0.00      0      0      0       0     167 12.55
 1982 272   108   106   14.0      5   0.69    842   1744   4174    958   2586   8825    919  454.3  0.473   6238      7  0.000  0.000  0.000  0.000  0.000  0.000  0.000   1.04  66.91   0.71      0   6238     81.9   0.81   0.00   0.66    2.48    3.76    3.91    4.00    1.22    1.02    0.00    0.00    0.00    0.00      0      0      0       0     167  0.00

*DSSAT Cropping System Model Ver. 4.7.5.008 -release  JAN 07, 2021 20:33:24

*RUN   3        : ERiMA DCC1                MZCER047 ETMZmelk    1
 MODEL          : MZCER047 - Maize
 EXPERIMENT     : ETMZmelk SN MELKSSAL
 DATA PATH      : C:\IRI\Python_Dash\ET_DSS_hist\TEST\
 TREATMENT  1   : ERiMA DCC1                MZCER047
  
!                                                                                                                                                                                                                                      Root Dens. (cm/cm3) by soil depth (cm):
!                                                                                                                                                                                                                                      0-5    5-15   15-20   20-35   35-50   50-65   65-81   81-97  97-118 118-200
[...]
 2015 250    86    84   20.0      4   2.22   2429   3108      0    700   5536   7377      0    0.0  0.000   1841      0  0.000  0.000  0.083  0.000  0.000  0.000  0.000   1.58   0.00   0.25      0   1841     91.4   1.48   0.00   0.65    3.67    3.01    3.03    1.94    1.52    1.31    0.00    0.00    0.00    0.00      0      0      0       0     138 12.55
 2015 251    87    85   20.0      4   2.20   2372   3169      0    706   5541   7530      0    0.0  0.000   1989      0  0.000  0.000  0.075  0.000  0.000  0.000  0.000   1.59   0.00   0.26      0   1989     92.7   1.48   0.00   0.65    3.71    3.05    3.07    1.96    1.52    1.31    0.00    0.00    0.00    0.00      0      0      0       0     142 12.85
 2015 252    88    86   20.0      5   2.18   2372   3169     84    730   5541   7614    785   10.7  0.011   2072      7  0.000  0.000  0.068  0.000  0.000  0.000  0.000   1.58   4.03   0.27      0   2072     91.9   1.48   0.00   0.65    3.86    3.21    3.23    2.05    1.53    1.32    0.00    0.00    0.00    0.00      0      0      0       0     145 12.55
 2015 253    89    87   20.0      5   2.16   2372   3169    167    751   5541   7697    785   21.3  0.022   2156      7  0.000  0.000  0.072  0.000  0.000  0.000  0.000   1.56   7.75   0.28      0   2156     91.1   1.48   0.00   0.65    3.99    3.34    3.36    2.12    1.53    1.33    0.00    0.00    0.00    0.00      0      0      0       0     149 12.65
 2015 254    90    88   20.0      5   2.14   2372   3169    251    781   5541   7781    785   32.0  0.032   2239      7  0.000  0.000  0.070  0.000  0.000  0.000  0.000   1.54  11.19   0.29      0   2239     90.3   1.48   0.00   0.65    4.00    3.53    3.55    2.23    1.55    1.36    0.00    0.00    0.00    0.00      0      0      0       0     153 12.40
 2015 255    91    89   20.0      5   2.12   2372   3169    334    801   5541   7864    785   42.6  0.043   2323      7  0.000  0.000  0.070  0.000  0.000  0.000  0.000   1.53  14.39   0.30      0   2323     89.5   1.48   0.00   0.65    4.00    3.65    3.67    2.30    1.55    1.37    0.00    0.00    0.00    0.00      0      0      0       0     157 11.30
 2015 256    92    90   20.0      5   2.10   2372   3169    418    830   5541   7948    785   53.2  0.053   2406      7  0.000  0.000  0.069  0.000  0.000  0.000  0.000   1.51  17.36   0.30      0   2406     88.7   1.48   0.00   0.65    4.00    3.83    3.85    2.40    1.57    1.40    0.00    0.00    0.00    0.00      0      0      0       0     161 11.20
 2015 257    93    91   20.0      5   2.09   2372   3169    501    859   5541   8031    785   63.9  0.062   2490      7  0.000  0.000  0.068  0.000  0.000  0.000  0.000   1.50  20.14   0.31      0   2490     87.9   1.48   0.00   0.65    4.00    4.00    4.00    2.50    1.58    1.43    0.00    0.00    0.00    0.00      0      0      0       0     165 12.80
 2015 258    94    92   20.0      5   2.07   2372   3169    585    874   5541   8115    785   74.6  0.072   2574      7  0.000  0.000  0.067  0.000  0.000  0.000  0.000   1.48  22.73   0.32      0   2574     87.2   1.48   0.00   0.65    4.00    4.00    4.00    2.56    1.58    1.43    0.00    0.00    0.00    0.00      0      0      0       0     169 13.65
 2015 259    95    93   20.0      5   2.05   2372   3169    669    885   5541   8199    785   85.2  0.082   2657      7  0.000  0.000  0.066  0.000  0.000  0.000  0.000   1.46  25.16   0.32      0   2657     86.5   1.48   0.00   0.65    4.00    4.00    4.00    2.60    1.58    1.43    0.00    0.00    0.00    0.00      0      0      0       0     173 13.80
 2015 260    96    94   20.0      5   2.03   2372   3169    752    900   5541   8282    785   95.8  0.091   2741      7  0.000  0.000  0.065  0.000  0.000  0.000  0.000   1.45  27.44   0.33      0   2741     85.8   1.48   0.00   0.65    4.00    4.00    4.00    2.66    1.59    1.44    0.00    0.00    0.00    0.00      0      0      0       0     178 12.80
 2015 261    97    95   20.0      5   2.02   2372   3169    836    935   5541   8366    785  106.5  0.100   2824      7  0.000  0.000  0.065  0.000  0.000  0.000  0.000   1.43  29.59   0.34      0   2824     85.1   1.48   0.00   0.65    4.00    4.00    4.00    2.79    1.60    1.45    0.00    0.00    0.00    0.00      0      0      0       0     182 11.70
 2015 262    98    96   20.0      5   2.00   2372   3169    919    955   5541   8449    785  117.1  0.109   2908      7  0.000  0.000  0.064  0.000  0.000  0.000  0.000   1.41  31.61   0.34      0   2908     84.4   1.48   0.00   0.65    4.00    4.00    4.00    2.86    1.61    1.46    0.00    0.00    0.00    0.00      0      0      0       0     187 13.85
 2015 263    99    97   20.0      5   1.99   2372   3169   1003    980   5541   8533    785  127.8  0.118   2991      7  0.000  0.000  0.063  0.000  0.000  0.000  0.000   1.40  33.52   0.35      0   2991     83.8   1.48   0.00   0.65    4.00    4.00    4.00    2.95    1.62    1.48    0.00    0.00    0.00    0.00      0      0      0       0     192 12.80
 2015 264   100    98   20.0      5   1.97   2372   3169   1086    996   5541   8616    785  138.5  0.126   3075      7  0.000  0.000  0.062  0.000  0.000  0.000  0.000   1.38  35.33   0.36      0   3075     83.1   1.48   0.00   0.65    4.00    4.00    4.00    3.01    1.62    1.48    0.00    0.00    0.00    0.00      0      0      0       0     197 12.85
 2015 265   101    99   20.0      5   1.96   2372   3169   1170   1013   5541   8700    785  149.1  0.134   3159      7  0.000  0.000  0.063  0.000  0.000  0.000  0.000   1.36  37.04   0.36      0   3159     82.4   1.48   0.00   0.65    4.00    4.00    4.00    3.07    1.63    1.49    0.00    0.00    0.00    0.00      0      0      0       0     202 12.30
 2015 266   102   100   20.0      5   1.94   2372   3169   1253   1044   5541   8784    785  159.8  0.143   3242      7  0.000  0.000  0.062  0.000  0.000  0.000  0.000   1.35  38.66   0.37      0   3242     81.8   1.48   0.00   0.65    4.00    4.00    4.00    3.18    1.64    1.50    0.00    0.00    0.00    0.00      0      0      0       0     207 13.20
 2015 267   103   101   20.0      5   1.93   2372   3169   1337   1086   5541   8867    785  170.4  0.151   3326      7  0.000  0.000  0.062  0.000  0.000  0.000  0.000   1.33  40.20   0.38      0   3326     81.2   1.48   0.00   0.65    4.00    4.00    4.00    3.34    1.66    1.52    0.00    0.00    0.00    0.00      0      0      0       0     212 12.20
 2015 268   104   102   20.0      5   1.91   2372   3169   1421   1101   5541   8951    785  181.1  0.159   3409      7  0.000  0.000  0.062  0.000  0.000  0.000  0.000   1.31  41.67   0.38      0   3409     80.5   1.48   0.00   0.65    4.00    4.00    4.00    3.39    1.66    1.53    0.00    0.00    0.00    0.00      0      0      0       0     217 11.85
 2015 269   105   103   20.0      5   1.90   2372   3169   1504   1110   5541   9034    785  191.7  0.166   3493      7  0.000  0.000  0.063  0.000  0.000  0.000  0.000   1.30  43.06   0.39      0   3493     79.9   1.48   0.00   0.65    4.00    4.00    4.00    3.42    1.66    1.53    0.00    0.00    0.00    0.00      0      0      0       0     223 10.70
 2015 270   106   104   20.0      5   1.88   2372   3169   1588   1120   5541   9118    785  202.4  0.174   3576      7  0.000  0.000  0.064  0.000  0.000  0.000  0.000   1.28  44.39   0.39      0   3576     79.3   1.48   0.00   0.65    4.00    4.00    4.00    3.46    1.66    1.54    0.00    0.00    0.00    0.00      0      0      0       0     228 11.70
 2015 271   107   105   20.0      5   1.87   2372   3169   1671   1138   5541   9201    785  213.0  0.182   3660      7  0.000  0.000  0.065  0.000  0.000  0.000  0.000   1.26  45.66   0.40      0   3660     78.6   1.48   0.00   0.65    4.00    4.00    4.00    3.53    1.67    1.55    0.00    0.00    0.00    0.00      0      0      0       0     234 11.80
 2015 272   108   106   20.0      5   1.85   2372   3169   1755   1151   5541   9285    785  223.7  0.189   3743      7  0.000  0.000  0.066  0.000  0.000  0.000  0.000   1.25  46.88   0.40      0   3743     78.0   1.48   0.00   0.65    4.00    4.00    4.00    3.57    1.67    1.56    0.00    0.00    0.00    0.00      0      0      0       0     240 11.45
 2015 273   109   107   20.0      5   1.83   2372   3169   1838   1172   5541   9368    785  234.3  0.196   3827      7  0.000  0.000  0.066  0.000  0.000  0.000  0.000   1.23  48.04   0.41      0   3827     77.3   1.48   0.00   0.65    4.00    4.00    4.00    3.65    1.68    1.59    0.00    0.00    0.00    0.00      0      0      0       0     246 13.20
 2015 274   110   108   20.0      5   1.82   2372   3169   1922   1189   5541   9452    785  245.0  0.203   3911      7  0.000  0.000  0.066  0.000  0.000  0.000  0.000   1.21  49.15   0.41      0   3911     76.7   1.48   0.00   0.65    4.00    4.00    4.00    3.71    1.68    1.59    0.00    0.00    0.00    0.00      0      0      0       0     251 14.25
 2015 275   111   109   20.0      5   1.80   2372   3169   2006   1217   5541   9536    785  255.6  0.210   3994      7  0.000  0.000  0.067  0.000  0.000  0.000  0.000   1.19  50.21   0.42      0   3994     76.1   1.48   0.00   0.65    4.00    4.00    4.00    3.81    1.70    1.61    0.00    0.00    0.00    0.00      0      0      0       0     257 14.15
 2015 276   112   110   20.0      5   1.79   2372   3169   2089   1249   5541   9619    785  266.3  0.217   4078      7  0.000  0.000  0.068  0.000  0.000  0.000  0.000   1.18  51.23   0.42      0   4078     75.4   1.48   0.00   0.65    4.00    4.00    4.00    3.93    1.71    1.62    0.00    0.00    0.00    0.00      0      0      0       0     263 13.25
 2015 277   113   111   20.0      5   1.77   2372   3169   2173   1274   5541   9703    785  276.9  0.224   4161      7  0.000  0.000  0.067  0.000  0.000  0.000  0.000   1.16  52.21   0.43      0   4161     74.8   1.48   0.00   0.65    4.00    4.00    4.00    4.00    1.72    1.64    0.00    0.00    0.00    0.00      0      0      0       0     270 14.80
 2015 278   114   112   20.0      5   1.76   2372   3169   2256   1294   5541   9786    785  287.6  0.231   4245      7  0.000  0.000  0.067  0.000  0.000  0.000  0.000   1.14  53.15   0.43      0   4245     74.2   1.48   0.00   0.65    4.00    4.00    4.00    4.00    1.73    1.65    0.00    0.00    0.00    0.00      0      0      0       0     276 14.30
 2015 279   115   113   20.0      5   1.74   2372   3169   2340   1316   5541   9870    785  298.2  0.237   4328      7  0.000  0.000  0.068  0.000  0.000  0.000  0.000   1.13  54.06   0.44      0   4328     73.5   1.48   0.00   0.65    4.00    4.00    4.00    4.00    1.74    1.66    0.00    0.00    0.00    0.00      0      0      0       0     282 12.45
 2015 280   116   114   20.0      5   1.73   2372   3169   2423   1335   5541   9953    785  308.9  0.243   4412      7  0.000  0.000  0.070  0.000  0.000  0.000  0.000   1.11  54.93   0.44      0   4412     72.9   1.48   0.00   0.65    4.00    4.00    4.00    4.00    1.74    1.67    0.00    0.00    0.00    0.00      0      0      0       0     289 12.80
 2015 281   117   115   20.0      5   1.71   2372   3169   2507   1359   5541  10037    785  319.5  0.250   4496      7  0.000  0.000  0.071  0.000  0.000  0.000  0.000   1.09  55.76   0.45      0   4496     72.2   1.48   0.00   0.65    4.00    4.00    4.00    4.00    1.75    1.69    0.00    0.00    0.00    0.00      0      0      0       0     296 11.90
 2015 282   118   116   20.0      5   1.70   2372   3169   2590   1385   5541  10121    785  330.1  0.256   4579      7  0.000  0.000  0.073  0.000  0.000  0.000  0.000   1.08  56.57   0.45      0   4579     71.6   1.48   0.00   0.65    4.00    4.00    4.00    4.00    1.76    1.72    0.00    0.00    0.00    0.00      0      0      0       0     303 12.15
 2015 283   119   117   20.0      5   1.68   2372   3169   2674   1401   5541  10204    785  340.8  0.262   4663      7  0.000  0.000  0.074  0.000  0.000  0.000  0.000   1.06  57.35   0.46      0   4663     70.9   1.48   0.00   0.65    4.00    4.00    4.00    4.00    1.76    1.73    0.00    0.00    0.00    0.00      0      0      0       0     309 13.95
 2015 284   120   118   20.0      5   1.67   2372   3169   2758   1409   5541  10288    785  351.4  0.268   4746      7  0.000  0.000  0.076  0.000  0.000  0.000  0.000   1.04  58.10   0.46      0   4746     70.2   1.48   0.00   0.65    4.00    4.00    4.00    4.00    1.76    1.73    0.00    0.00    0.00    0.00      0      0      0       0     316 13.15
 2015 285   121   119   20.0      5   1.65   2372   3169   2841   1427   5541  10371    785  362.1  0.274   4830      7  0.000  0.000  0.078  0.000  0.000  0.000  0.000   1.03  58.83   0.47      0   4830     69.6   1.48   0.00   0.65    4.00    4.00    4.00    4.00    1.77    1.74    0.00    0.00    0.00    0.00      0      0      0       0     324 12.80
 2015 286   122   120   20.0      5   1.63   2372   3169   2925   1447   5541  10455    785  372.7  0.280   4913      7  0.000  0.000  0.080  0.000  0.000  0.000  0.000   1.01  59.53   0.47      0   4913     68.9   1.48   0.00   0.65    4.00    4.00    4.00    4.00    1.78    1.75    0.00    0.00    0.00    0.00      0      0      0       0     331 12.65
 2015 287   123   121   20.0      5   1.62   2372   3169   3008   1471   5541  10538    785  383.4  0.285   4997      7  0.000  0.000  0.083  0.000  0.000  0.000  0.000   0.99  60.20   0.47      0   4997     68.1   1.48   0.00   0.65    4.00    4.00    4.00    4.00    1.79    1.76    0.00    0.00    0.00    0.00      0      0      0       0     338 12.40
 2015 288   124   122   20.0      5   1.60   2372   3169   3092   1497   5541  10622    785  394.0  0.291   5081      7  0.000  0.000  0.085  0.000  0.000  0.000  0.000   0.98  60.86   0.48      0   5081     67.4   1.48   0.00   0.65    4.00    4.00    4.00    4.00    1.80    1.77    0.00    0.00    0.00    0.00      0      0      0       0     345 13.25
 2015 289   125   123   20.0      5   1.58   2372   3169   3175   1511   5541  10705    785  404.7  0.297   5164      7  0.000  0.000  0.088  0.000  0.000  0.000  0.000   0.96  61.49   0.48      0   5164     66.7   1.48   0.00   0.65    3.98    4.00    4.00    4.00    1.80    1.78    0.00    0.00    0.00    0.00      0      0      0       0     353 13.20
 2015 290   126   124   20.0      5   1.56   2372   3169   3259   1525   5541  10789    785  415.3  0.302   5248      7  0.000  0.000  0.092  0.000  0.000  0.000  0.000   0.94  62.10   0.49      0   5248     65.9   1.48   0.00   0.65    3.96    4.00    4.00    4.00    1.81    1.78    0.00    0.00    0.00    0.00      0      0      0       0     360 12.50
 2015 291   127   125   20.0      5   1.54   2372   3169   3343   1536   5541  10873    785  426.0  0.307   5331      7  0.000  0.000  0.096  0.000  0.000  0.000  0.000   0.92  62.70   0.49      0   5331     65.1   1.48   0.00   0.65    3.94    4.00    4.00    4.00    1.82    1.79    0.00    0.00    0.00    0.00      0      0      0       0     368 12.25
 2015 292   128   126   20.0      5   1.53   2372   3169   3426   1543   5541  10956    785  436.6  0.313   5415      7  0.000  0.000  0.101  0.000  0.000  0.000  0.000   0.91  63.27   0.49      0   5415     64.3   1.48   0.00   0.65    4.00    4.00    4.00    4.00    1.82    1.79    0.00    0.00    0.00    0.00      0      0      0       0     376 11.50
 2015 293   129   127   20.0      5   1.51   2372   3169   3510   1564   5541  11040    785  447.3  0.318   5498      7  0.000  0.000  0.105  0.000  0.000  0.000  0.000   0.89  63.83   0.50      0   5498     63.5   1.48   0.00   0.65    4.00    4.00    4.00    4.00    1.82    1.79    0.00    0.00    0.00    0.00      0      0      0       0     383 11.50
 2015 294   130   128   20.0      5   1.48   2372   3169   3593   1581   5541  11123    785  457.9  0.323   5582      7  0.000  0.000  0.110  0.000  0.000  0.000  0.000   0.87  64.37   0.50      0   5582     62.6   1.48   0.00   0.65    4.00    4.00    4.00    4.00    1.83    1.80    0.00    0.00    0.00    0.00      0      0      0       0     391 11.75
 2015 295   131   129   20.0      5   1.46   2372   3169   3677   1593   5541  11207    785  468.6  0.328   5665      7  0.000  0.000  0.115  0.000  0.000  0.000  0.000   0.86  64.90   0.51      0   5665     61.7   1.48   0.00   0.65    4.00    4.00    4.00    4.00    1.83    1.80    0.00    0.00    0.00    0.00      0      0      0       0     399 10.85
 2015 296   132   130   20.0      5   1.44   2372   3169   3760   1599   5541  11290    785  479.2  0.333   5749      7  0.000  0.000  0.121  0.000  0.000  0.000  0.000   0.84  65.41   0.51      0   5749     60.8   1.48   0.00   0.65    3.98    4.00    4.00    4.00    1.83    1.80    0.00    0.00    0.00    0.00      0      0      0       0     407 10.50
 2015 297   133   131   20.0      5   1.42   2372   3169   3844   1607   5541  11374    785  489.9  0.338   5833      7  0.000  0.000  0.127  0.000  0.000  0.000  0.000   0.82  65.90   0.51      0   5833     59.8   1.48   0.00   0.65    3.96    4.00    4.00    4.00    1.84    1.81    0.00    0.00    0.00    0.00      0      0      0       0     415 11.00
 2015 298   134   132   20.0      5   1.39   2372   3169   3928   1621   5541  11458    785  500.5  0.343   5916      7  0.000  0.000  0.132  0.000  0.000  0.000  0.000   0.81  66.39   0.52      0   5916     58.8   1.48   0.00   0.65    3.94    4.00    4.00    4.00    1.84    1.81    0.00    0.00    0.00    0.00      0      0      0       0     423 12.85
 2015 299   135   133   20.0      5   1.37   2372   3169   4011   1633   5541  11541    785  511.2  0.348   6000      7  0.000  0.000  0.137  0.000  0.000  0.000  0.000   0.79  66.85   0.52      0   6000     57.8   1.48   0.00   0.65    3.92    4.00    4.00    4.00    1.85    1.82    0.00    0.00    0.00    0.00      0      0      0       0     431 14.75
 2015 300   136   134   20.0      5   1.35   2372   3169   4095   1641   5541  11625    785  521.8  0.352   6083      7  0.000  0.000  0.143  0.000  0.000  0.000  0.000   0.77  67.31   0.52      0   6083     56.8   1.48   0.00   0.65    3.90    4.00    4.00    4.00    1.85    1.82    0.00    0.00    0.00    0.00      0      0      0       0     439 13.65
 2015 301   137   135   20.0      5   1.32   2372   3169   4178   1652   5541  11708    785  532.5  0.357   6167      7  0.000  0.000  0.149  0.000  0.000  0.000  0.000   0.76  67.75   0.53      0   6167     55.7   1.48   0.00   0.65    4.00    4.00    4.00    4.00    1.85    1.82    0.00    0.00    0.00    0.00      0      0      0       0     448 13.70
 2015 302   138   136   20.0      5   1.32   2372   3169   4178   1652   5541  11708    785  532.5  0.357   6167      7  0.000  0.000  0.153  0.000  0.000  0.000  0.000   0.76  67.75   0.53      0   6167     55.7   1.48   0.00   0.65    4.00    4.00    4.00    4.00    1.85    1.83    0.00    0.00    0.00    0.00      0      0      0       0     448 13.70
 2015 303   139   137   20.0      5   1.32   2372   3169   4178   1652   5541  11708    785  532.5  0.357   6167      7  0.000  0.000  0.153  0.000  0.000  0.000  0.000   0.76  67.75   0.53      0   6167     55.7   1.48   0.00   0.65    4.00    4.00    4.00    4.00    1.86    1.83    0.00    0.00    0.00    0.00      0      0      0       0     448 13.65
 2015 304   140   138   20.0      5   1.32   2372   3169   4178   1652   5541  11708    785  532.5  0.357   6167      7  0.000  0.000  0.153  0.000  0.000  0.000  0.000   0.76  67.75   0.53      0   6167     55.7   1.48   0.00   0.65    4.00    4.00    4.00    4.00    1.86    1.83    0.00    0.00    0.00    0.00      0      0      0       0     448 13.90
 2015 305   141   139   20.0      5   1.32   2372   3169   4178   1652   5541  11708    785  532.5  0.357   6167      7  0.000  0.000  0.153  0.000  0.000  0.000  0.000   0.76  67.75   0.53      0   6167     55.7   1.48   0.00   0.65    4.00    4.00    4.00    4.00    1.86    1.83    0.00    0.00    0.00    0.00      0      0      0       0     448  0.00
