*PLANT N OUTPUT FILE

*DSSAT Cropping System Model Ver. 4.7.5.008 -release  JAN 07, 2021 20:33:24

*RUN   1        : ERiMA DCC1                MZCER047 ETMZmelk    1
 MODEL          : MZCER047 - Maize
 EXPERIMENT     : ETMZmelk SN MELKSSAL
 DATA PATH      : C:\IRI\Python_Dash\ET_DSS_hist\TEST\
 TREATMENT  1   : ERiMA DCC1                MZCER047
  
@YEAR DOY   DAS   DAP   CNAD   GNAD   VNAD   GN%D   VN%D   NUPC   LNAD   SNAD   LN%D   SN%D   RN%D   SNN0C   SNN1C
 1981 166     2     0    0.0    0.0    0.0   0.00   0.00    0.0    0.0    0.0    0.0   0.00   0.00    0.00    0.00
 1981 167     3     1    0.0    0.0    0.0   0.00   0.00    0.0    0.0    0.0    0.0   0.00   0.00    0.00    0.00
 1981 168     4     2    0.0    0.0    0.0   0.00   0.00    0.0    0.0    0.0    0.0   0.00   0.00    0.00    0.00
 1981 169     5     3    0.0    0.0    0.0   0.00   0.00    0.0    0.0    0.0    0.0   0.00   0.00    0.00    0.00
 1981 170     6     4    0.0    0.0    0.0   0.00   0.00    0.0    0.0    0.0    0.0   0.00   0.00    0.00    0.00
 1981 171     7     5    1.1    0.0    1.1   0.00   4.40    0.0    0.6    0.6    4.4   4.40   2.20    0.00    0.00
 1981 172     8     6    1.1    0.0    1.1   0.00   4.40    0.0    0.6    0.6    4.4   4.40   2.16    0.00    0.00
 1981 173     9     7    1.1    0.0    1.1   0.00   4.40    0.0    0.6    0.6    4.4   4.40   2.07    0.00    0.00
 1981 174    10     8    1.1    0.0    1.1   0.00   4.40    0.0    0.6    0.6    4.4   4.40   1.92    0.00    0.00
 1981 175    11     9    1.1    0.0    1.1   0.00   4.40    0.0    0.6    0.6    4.4   4.40   1.76    0.00    0.00
 1981 176    12    10    1.1    0.0    1.1   0.00   4.21    0.0    0.6    0.5    4.2   4.21   1.55    0.00    0.00
 1981 177    13    11    1.1    0.0    1.1   0.00   3.28    0.0    0.7    0.4    3.3   3.28   1.46    0.00    0.00
 1981 178    14    12    1.3    0.0    1.3   0.00   3.18    0.2    0.9    0.4    3.2   3.18   1.22    0.00    0.00
 1981 179    15    13    1.6    0.0    1.6   0.00   3.09    0.5    1.2    0.4    3.1   3.09   1.23    0.00    0.00
 1981 180    16    14    2.0    0.0    2.0   0.00   3.30    1.0    1.6    0.4    3.3   3.30   1.50    0.00    0.00
 1981 181    17    15    3.2    0.0    3.2   0.00   4.14    2.2    2.7    0.5    4.1   4.14   1.29    0.00    0.01
 1981 182    18    16    3.7    0.0    3.7   0.00   3.98    2.7    3.2    0.5    4.0   3.98   1.21    0.00    0.01
 1981 183    19    17    4.0    0.0    4.0   0.00   3.90    3.2    3.5    0.5    3.9   3.90   1.52    0.00    0.01
 1981 184    20    18    4.5    0.0    4.5   0.00   3.98    3.9    3.9    0.5    4.0   3.98   1.74    0.00    0.01
 1981 185    21    19    5.2    0.0    5.2   0.00   3.76    4.5    4.7    0.5    3.8   3.76   1.35    0.00    0.02
 1981 186    22    20    6.2    0.0    6.2   0.00   3.68    5.6    5.7    0.5    3.7   3.68   1.33    0.00    0.02
 1981 187    23    21    7.5    0.0    7.5   0.00   3.62    7.1    6.9    0.6    3.6   3.62   1.36    0.00    0.03
 1981 188    24    22    8.2    0.0    8.2   0.00   3.48    8.3    7.6    0.7    3.5   3.48   1.52    0.00    0.03
 1981 189    25    23    9.2    0.0    9.2   0.00   3.47    9.4    8.4    0.8    3.5   3.47   1.43    0.00    0.04
 1981 190    26    24    9.8    0.0    9.8   0.00   3.33   10.1    8.9    0.9    3.3   3.33   1.31    0.00    0.05
 1981 191    27    25   10.7    0.0   10.7   0.00   3.32   11.3    9.7    1.0    3.3   3.32   1.35    0.00    0.05
 1981 192    28    26   12.6    0.0   12.6   0.00   3.30   12.9   11.3    1.4    3.3   3.30   1.11    0.00    0.06
 1981 193    29    27   14.6    0.0   14.6   0.00   3.24   14.9   12.8    1.8    3.2   3.24   1.11    0.00    0.07
 1981 194    30    28   17.3    0.0   17.3   0.00   3.22   18.0   14.9    2.4    3.2   3.22   1.24    0.00    0.08
 1981 195    31    29   19.9    0.0   19.9   0.00   3.15   20.5   16.8    3.1    3.1   3.15   1.15    0.00    0.09
 1981 196    32    30   22.5    0.0   22.5   0.00   3.08   23.2   18.6    3.9    3.1   3.08   1.17    0.00    0.10
 1981 197    33    31   25.3    0.0   25.3   0.00   3.03   26.4   20.5    4.8    3.0   3.03   1.23    0.00    0.11
 1981 198    34    32   28.3    0.0   28.3   0.00   2.98   29.3   21.2    7.1    3.0   2.98   1.13    0.00    0.12
 1981 199    35    33   31.8    0.0   31.8   0.00   2.93   32.8   22.1    9.7    2.9   2.93   1.14    0.00    0.13
 1981 200    36    34   34.8    0.0   34.8   0.00   2.87   35.9   22.6   12.2    2.9   2.87   1.13    0.00    0.15
 1981 201    37    35   37.3    0.0   37.3   0.00   2.81   38.5   23.0   14.3    2.8   2.81   1.13    0.00    0.16
 1981 202    38    36   40.7    0.0   40.7   0.00   2.78   42.0   23.7   16.9    2.8   2.78   1.13    0.00    0.17
 1981 203    39    37   43.0    0.0   43.0   0.00   2.72   44.4   24.0   19.0    2.7   2.72   1.12    0.00    0.18
 1981 204    40    38   46.5    0.0   46.5   0.00   2.70   47.9   24.8   21.7    2.7   2.70   1.13    0.00    0.20
 1981 205    41    39   49.9    0.0   49.9   0.00   2.67   51.5   25.5   24.4    2.7   2.67   1.14    0.00    0.21
 1981 206    42    40   52.3    0.0   52.3   0.00   2.61   53.9   25.8   26.5    2.6   2.61   1.13    0.00    0.22
 1981 207    43    41   53.5    0.0   53.5   0.00   2.55   55.2   25.8   27.7    2.6   2.55   1.11    0.00    0.24
 1981 208    44    42   56.9    0.0   56.9   0.00   2.56   58.7   26.7   30.2    2.6   2.56   1.13    0.00    0.25
 1981 209    45    43   59.2    0.0   59.2   0.00   2.52   61.1   27.2   32.0    2.5   2.52   1.13    0.00    0.27
 1981 210    46    44   59.8    0.0   59.8   0.00   2.45   61.8   27.0   32.8    2.5   2.45   1.11    0.00    0.28
 1981 211    47    45   61.7    0.0   61.7   0.00   2.43   63.7   27.5   34.2    2.4   2.43   1.12    0.00    0.30
 1981 212    48    46   63.0    0.0   63.0   0.00   2.40   65.2   27.8   35.3    2.4   2.40   1.11    0.00    0.31
 1981 213    49    47   65.9    0.0   65.9   0.00   2.41   68.2   28.9   37.0    2.4   2.41   1.13    0.00    0.33
 1981 214    50    48   65.9    0.0   65.9   0.00   2.34   68.2   28.6   37.3    2.3   2.34   1.11    0.00    0.33
 1981 215    51    49   68.3    0.0   68.3   0.00   2.38   70.7   28.7   39.6    2.4   2.38   1.12    0.00    0.35
 1981 216    52    50   68.3    0.0   68.3   0.00   2.35   70.7   28.0   40.4    2.3   2.35   1.10    0.00    0.35
 1981 217    53    51   68.3    0.0   68.3   0.00   2.32   70.7   27.2   41.1    2.3   2.32   1.07    0.00    0.35
 1981 218    54    52   68.3    0.0   68.3   0.00   2.29   70.7   26.5   41.8    2.3   2.29   1.05    0.00    0.35
 1981 219    55    53   68.3    0.0   68.3   0.00   2.27   70.7   25.8   42.5    2.3   2.27   1.03    0.00    0.35
 1981 220    56    54   68.3    0.0   68.3   0.00   2.25   70.7   25.2   43.2    2.3   2.25   1.01    0.00    0.35
 1981 221    57    55   68.3    0.0   68.3   0.00   2.24   70.7   24.5   43.8    2.2   2.24   0.99    0.00    0.35
 1981 222    58    56   68.3    0.0   68.3   0.00   2.23   70.7   24.0   44.4    2.2   2.23   0.97    0.00    0.35
 1981 223    59    57   68.3    0.0   68.3   0.00   2.23   70.7   23.5   44.9    2.2   2.23   0.96    0.00    0.35
 1981 224    60    58   68.3    0.0   68.3   0.00   2.23   70.7   23.0   45.4    2.2   2.23   0.95    0.00    0.35
 1981 225    61    59   68.3    0.0   68.3   0.00   2.23   70.7   22.4   46.0    2.2   2.23   0.94    0.00    0.35
 1981 226    62    60   68.3    0.0   68.3   0.00   2.23   70.7   21.8   46.5    2.2   2.23   0.92    0.00    0.35
 1981 227    63    61   68.3    0.0   68.3   0.00   2.23   70.7   21.2   47.1    2.2   2.23   0.91    0.00    0.35
 1981 228    64    62   68.3    0.0   68.3   0.00   2.24   70.7   20.7   47.7    2.2   2.24   0.90    0.00    0.35
 1981 229    65    63   68.3    2.0   66.4   1.70   2.17   70.7   20.1   46.3    2.2   2.17   0.85    0.00    0.35
 1981 230    66    64   68.3    3.9   64.4   1.70   2.11   70.7   19.5   44.9    2.1   2.11   0.80    0.00    0.35
 1981 231    67    65   68.3    5.9   62.4   1.70   2.04   70.7   18.9   43.5    2.0   2.04   0.74    0.00    0.35
 1981 232    68    66   68.3    7.9   60.5   1.70   1.98   70.7   18.3   42.2    2.0   1.98   0.71    0.00    0.35
 1981 233    69    67   68.3    9.8   58.5   1.70   1.92   70.7   17.7   40.8    1.9   1.92   0.68    0.00    0.35
 1981 234    70    68   68.3   11.8   56.5   1.70   1.85   70.7   17.1   39.4    1.9   1.85   0.67    0.00    0.35
 1981 235    71    69   66.9   13.8   53.1   1.70   1.74   71.8   16.1   37.0    1.7   1.74   1.13    0.00    0.36
 1981 236    72    70   67.9   15.8   52.2   1.70   1.71   72.9   15.8   36.4    1.7   1.71   1.11    0.00    0.39
 1981 237    73    71   69.3   17.7   51.6   1.70   1.69   74.5   15.6   36.0    1.7   1.69   1.13    0.00    0.42
 1981 238    74    72   70.3   19.7   50.6   1.70   1.66   75.7   15.3   35.3    1.7   1.66   1.12    0.00    0.46
 1981 239    75    73   71.7   21.7   50.1   1.70   1.64   77.4   15.2   34.9    1.6   1.64   1.13    0.00    0.49
 1981 240    76    74   73.1   23.6   49.5   1.70   1.62   79.1   15.0   34.5    1.6   1.62   1.14    0.00    0.52
 1981 241    77    75   74.3   25.6   48.6   1.70   1.59   80.5   14.7   33.9    1.6   1.59   1.14    0.00    0.55
 1981 242    78    76   75.2   27.6   47.6   1.70   1.56   81.4   14.4   33.2    1.6   1.56   1.11    0.00    0.59
 1981 243    79    77   76.2   29.5   46.7   1.70   1.53   82.5   14.1   32.6    1.5   1.53   1.10    0.00    0.63
 1981 244    80    78   77.4   31.5   45.9   1.70   1.50   83.8   13.9   32.0    1.5   1.50   1.09    0.00    0.66
 1981 245    81    79   79.6   33.5   46.2   1.70   1.51   86.8   14.0   32.2    1.5   1.51   1.16    0.00    0.70
 1981 246    82    80   80.3   35.5   44.8   1.70   1.47   87.3   13.6   31.3    1.5   1.47   1.11    0.00    0.74
 1981 247    83    81   81.7   37.4   44.3   1.70   1.45   89.0   13.4   30.9    1.4   1.45   1.12    0.00    0.77
 1981 248    84    82   82.7   39.4   43.4   1.70   1.42   90.1   13.1   30.2    1.4   1.42   1.10    0.00    0.81
 1981 249    85    83   84.2   41.4   42.8   1.70   1.40   91.8   13.0   29.9    1.4   1.40   1.11    0.00    0.85
 1981 250    86    84   85.4   43.3   42.1   1.70   1.38   93.1   12.7   29.4    1.4   1.38   1.10    0.00    0.90
 1981 251    87    85   87.0   45.3   41.7   1.70   1.36   95.1   12.6   29.1    1.4   1.36   1.12    0.00    0.94
 1981 252    88    86   88.2   47.3   40.9   1.70   1.34   96.4   12.4   28.5    1.3   1.34   1.11    0.00    0.98
 1981 253    89    87   89.3   49.2   40.0   1.70   1.31   97.6   12.1   27.9    1.3   1.31   1.10    0.00    1.02
 1981 254    90    88   90.4   51.2   39.2   1.70   1.28   98.6   11.9   27.3    1.3   1.28   1.08    0.00    1.07
 1981 255    91    89   92.0   53.2   38.9   1.70   1.27  100.6   11.8   27.1    1.3   1.27   1.10    0.00    1.11
 1981 256    92    90   93.2   55.1   38.1   1.70   1.25  101.7   11.5   26.5    1.2   1.25   1.08    0.00    1.15
 1981 257    93    91   94.4   57.1   37.3   1.70   1.22  102.7   11.3   26.0    1.2   1.22   1.07    0.00    1.20
 1981 258    94    92   96.1   59.1   37.0   1.70   1.21  104.7   11.2   25.8    1.2   1.21   1.09    0.00    1.24
 1981 259    95    93   97.5   61.1   36.4   1.70   1.19  106.2   11.0   25.4    1.2   1.19   1.09    0.00    1.28
 1981 260    96    94   99.0   63.0   35.9   1.70   1.18  107.9   10.9   25.1    1.2   1.18   1.10    0.00    1.33
 1981 261    97    95  100.1   65.0   35.1   1.70   1.15  108.9   10.6   24.5    1.1   1.15   1.07    0.00    1.37
 1981 262    98    96  101.6   67.0   34.6   1.70   1.13  110.5   10.5   24.1    1.1   1.13   1.08    0.00    1.42
 1981 263    99    97  103.2   68.9   34.3   1.70   1.12  112.3   10.4   23.9    1.1   1.12   1.09    0.00    1.46
 1981 264   100    98  104.6   70.9   33.7   1.70   1.10  113.8   10.2   23.5    1.1   1.10   1.09    0.00    1.51
 1981 265   101    99  105.7   72.9   32.9   1.70   1.08  114.8    9.9   22.9    1.1   1.08   1.07    0.00    1.55
 1981 266   102   100  107.3   74.8   32.4   1.70   1.06  116.4    9.8   22.6    1.1   1.06   1.08    0.00    1.60
 1981 267   103   101  108.7   76.8   31.9   1.70   1.05  118.0    9.7   22.3    1.0   1.05   1.08    0.00    1.64
 1981 268   104   102  110.2   78.8   31.4   1.70   1.03  119.4    9.5   21.9    1.0   1.03   1.07    0.00    1.69
 1981 269   105   103  110.2   78.8   31.4   1.70   1.03  119.4    9.5   21.9    1.0   1.03   1.07    0.00    1.69
 1981 270   106   104  110.2   78.8   31.4   1.70   1.03  119.4    9.5   21.9    1.0   1.03   1.07    0.00    1.69
 1981 271   107   105  110.2   78.8   31.4   1.70   1.03  119.4    9.5   21.9    1.0   1.03   1.07    0.00    1.69
 1981 272   108   106  110.2   78.8   31.4   1.70   1.03  119.4    9.5   21.9    1.0   1.03   1.07    0.00    1.69

*DSSAT Cropping System Model Ver. 4.7.5.008 -release  JAN 07, 2021 20:33:24

*RUN   2        : ERiMA DCC1                MZCER047 ETMZmelk    1
 MODEL          : MZCER047 - Maize
 EXPERIMENT     : ETMZmelk SN MELKSSAL
 DATA PATH      : C:\IRI\Python_Dash\ET_DSS_hist\TEST\
 TREATMENT  1   : ERiMA DCC1                MZCER047
  
@YEAR DOY   DAS   DAP   CNAD   GNAD   VNAD   GN%D   VN%D   NUPC   LNAD   SNAD   LN%D   SN%D   RN%D   SNN0C   SNN1C
 1982 166     2     0    0.0    0.0    0.0   0.00   0.00    0.0    0.0    0.0    0.0   0.00   0.00    0.00    0.00
 1982 167     3     1    0.0    0.0    0.0   0.00   0.00    0.0    0.0    0.0    0.0   0.00   0.00    0.00    0.00
 1982 168     4     2    0.0    0.0    0.0   0.00   0.00    0.0    0.0    0.0    0.0   0.00   0.00    0.00    0.00
 1982 169     5     3    0.0    0.0    0.0   0.00   0.00    0.0    0.0    0.0    0.0   0.00   0.00    0.00    0.00
 1982 170     6     4    0.0    0.0    0.0   0.00   0.00    0.0    0.0    0.0    0.0   0.00   0.00    0.00    0.00
 1982 171     7     5    0.0    0.0    0.0   0.00   0.00    0.0    0.0    0.0    0.0   0.00   0.00    0.00    0.00
 1982 172     8     6    1.1    0.0    1.1   0.00   4.40    0.0    0.6    0.6    4.4   4.40   2.20    0.00    0.00
 1982 173     9     7    1.1    0.0    1.1   0.00   4.40    0.0    0.6    0.6    4.4   4.40   2.15    0.00    0.00
 1982 174    10     8    1.1    0.0    1.1   0.00   4.40    0.0    0.6    0.6    4.4   4.40   2.07    0.00    0.00
 1982 175    11     9    1.1    0.0    1.1   0.00   4.40    0.0    0.6    0.6    4.4   4.40   1.94    0.00    0.00
 1982 176    12    10    1.1    0.0    1.1   0.00   4.40    0.0    0.6    0.6    4.4   4.40   1.78    0.00    0.00
 1982 177    13    11    1.1    0.0    1.1   0.00   4.40    0.0    0.6    0.6    4.4   4.40   1.61    0.00    0.00
 1982 178    14    12    1.1    0.0    1.1   0.00   4.21    0.0    0.6    0.5    4.2   4.21   1.42    0.00    0.00
 1982 179    15    13    1.1    0.0    1.1   0.00   3.52    0.0    0.7    0.5    3.5   3.52   1.33    0.00    0.00
 1982 180    16    14    1.3    0.0    1.3   0.00   2.97    0.1    0.9    0.4    3.0   2.97   1.21    0.00    0.00
 1982 181    17    15    1.6    0.0    1.6   0.00   2.99    0.5    1.2    0.4    3.0   2.99   1.26    0.00    0.00
 1982 182    18    16    2.8    0.0    2.8   0.00   4.11    1.7    2.2    0.5    4.1   4.11   1.29    0.00    0.00
 1982 183    19    17    3.4    0.0    3.4   0.00   4.04    2.5    2.9    0.5    4.0   4.04   1.40    0.00    0.01
 1982 184    20    18    4.0    0.0    4.0   0.00   3.92    3.2    3.5    0.5    3.9   3.92   1.40    0.00    0.01
 1982 185    21    19    4.7    0.0    4.7   0.00   3.80    4.1    4.2    0.5    3.8   3.80   1.44    0.00    0.01
 1982 186    22    20    5.8    0.0    5.8   0.00   3.75    5.2    5.2    0.5    3.7   3.75   1.43    0.00    0.02
 1982 187    23    21    6.8    0.0    6.8   0.00   3.65    6.4    6.2    0.6    3.7   3.65   1.41    0.00    0.02
 1982 188    24    22    7.9    0.0    7.9   0.00   3.58    7.7    7.3    0.6    3.6   3.58   1.32    0.00    0.03
 1982 189    25    23    9.4    0.0    9.4   0.00   3.52    9.4    8.6    0.7    3.5   3.52   1.40    0.00    0.03
 1982 190    26    24   10.7    0.0   10.7   0.00   3.43   10.8    9.8    0.9    3.4   3.43   1.28    0.00    0.04
 1982 191    27    25   12.1    0.0   12.1   0.00   3.36   12.4   11.0    1.1    3.4   3.36   1.27    0.00    0.05
 1982 192    28    26   14.4    0.0   14.4   0.00   3.34   15.1   12.9    1.5    3.3   3.34   1.38    0.00    0.05
 1982 193    29    27   15.6    0.0   15.6   0.00   3.21   16.8   13.8    1.8    3.2   3.21   1.39    0.00    0.06
 1982 194    30    28   17.3    0.0   17.3   0.00   3.16   18.6   15.1    2.2    3.2   3.16   1.30    0.00    0.08
 1982 195    31    29   19.3    0.0   19.3   0.00   3.13   20.6   16.6    2.7    3.1   3.13   1.19    0.00    0.09
 1982 196    32    30   20.9    0.0   20.9   0.00   3.06   22.8   17.7    3.2    3.1   3.06   1.30    0.00    0.10
 1982 197    33    31   22.9    0.0   22.9   0.00   3.02   25.0   19.1    3.8    3.0   3.02   1.26    0.00    0.12
 1982 198    34    32   25.3    0.0   25.3   0.00   2.99   27.5   20.7    4.6    3.0   2.99   1.18    0.00    0.14
 1982 199    35    33   27.4    0.0   27.4   0.00   2.97   29.3   21.4    6.0    3.0   2.97   1.10    0.00    0.15
 1982 200    36    34   29.0    0.0   29.0   0.00   3.00   31.0   22.0    7.1    3.0   3.00   1.11    0.00    0.17
 1982 201    37    35   31.3    0.0   31.3   0.00   3.12   33.4   23.2    8.1    3.1   3.12   1.13    0.00    0.19
 1982 202    38    36   31.5    0.0   31.5   0.00   3.06   33.6   22.9    8.6    3.1   3.06   1.13    0.00    0.20
 1982 203    39    37   31.5    0.0   31.5   0.00   2.88   33.6   22.0    9.5    2.9   2.88   1.12    0.00    0.20
 1982 204    40    38   33.8    0.0   33.8   0.00   2.76   35.9   22.1   11.7    2.8   2.76   1.11    0.00    0.22
 1982 205    41    39   36.5    0.0   36.5   0.00   2.71   38.7   22.5   14.0    2.7   2.71   1.11    0.00    0.24
 1982 206    42    40   38.4    0.0   38.4   0.00   2.65   40.7   22.7   15.8    2.6   2.65   1.10    0.00    0.25
 1982 207    43    41   41.4    0.0   41.4   0.00   2.63   43.8   23.3   18.1    2.6   2.63   1.11    0.00    0.27
 1982 208    44    42   44.1    0.0   44.1   0.00   2.60   46.6   23.8   20.3    2.6   2.60   1.11    0.00    0.29
 1982 209    45    43   46.8    0.0   46.8   0.00   2.56   49.4   24.3   22.5    2.6   2.56   1.12    0.00    0.31
 1982 210    46    44   49.1    0.0   49.1   0.00   2.53   51.9   24.8   24.3    2.5   2.53   1.11    0.00    0.33
 1982 211    47    45   50.2    0.0   50.2   0.00   2.46   52.9   24.8   25.4    2.5   2.46   1.10    0.00    0.35
 1982 212    48    46   52.3    0.0   52.3   0.00   2.44   55.1   25.3   27.0    2.4   2.44   1.11    0.00    0.36
 1982 213    49    47   53.4    0.0   53.4   0.00   2.39   56.3   25.5   28.0    2.4   2.39   1.10    0.00    0.38
 1982 214    50    48   54.1    0.0   54.1   0.00   2.34   57.1   25.5   28.6    2.3   2.34   1.10    0.00    0.40
 1982 215    51    49   57.3    0.0   57.3   0.00   2.38   60.4   26.8   30.5    2.4   2.38   1.12    0.00    0.42
 1982 216    52    50   59.2    0.0   59.2   0.00   2.40   62.4   26.7   32.5    2.4   2.40   1.11    0.00    0.44
 1982 217    53    51   59.2    0.0   59.2   0.00   2.37   62.4   25.9   33.3    2.4   2.37   1.09    0.00    0.44
 1982 218    54    52   59.2    0.0   59.2   0.00   2.34   62.4   25.2   34.0    2.3   2.34   1.08    0.00    0.44
 1982 219    55    53   59.2    0.0   59.2   0.00   2.32   62.4   24.6   34.6    2.3   2.32   1.07    0.00    0.44
 1982 220    56    54   59.2    0.0   59.2   0.00   2.31   62.4   24.0   35.2    2.3   2.31   1.05    0.00    0.44
 1982 221    57    55   59.2    0.0   59.2   0.00   2.30   62.4   23.5   35.7    2.3   2.30   1.05    0.00    0.44
 1982 222    58    56   59.2    0.0   59.2   0.00   2.29   62.4   23.0   36.2    2.3   2.29   1.03    0.00    0.44
 1982 223    59    57   59.2    0.0   59.2   0.00   2.28   62.4   22.4   36.8    2.3   2.28   1.02    0.00    0.44
 1982 224    60    58   59.2    0.0   59.2   0.00   2.27   62.4   21.9   37.3    2.3   2.27   1.01    0.00    0.44
 1982 225    61    59   59.2    0.0   59.2   0.00   2.27   62.4   21.3   37.8    2.3   2.27   0.99    0.00    0.44
 1982 226    62    60   59.2    0.0   59.2   0.00   2.28   62.4   20.9   38.3    2.3   2.28   0.99    0.00    0.44
 1982 227    63    61   59.2    0.0   59.2   0.00   2.28   62.4   20.3   38.8    2.3   2.28   0.98    0.00    0.44
 1982 228    64    62   59.2    0.0   59.2   0.00   2.28   62.4   19.8   39.4    2.3   2.28   0.97    0.00    0.44
 1982 229    65    63   59.2    0.0   59.2   0.00   2.29   62.4   19.3   39.9    2.3   2.29   0.96    0.00    0.44
 1982 230    66    64   59.2    1.8   57.4   1.70   2.22   62.4   18.7   38.7    2.2   2.22   0.92    0.00    0.44
 1982 231    67    65   59.2    3.6   55.5   1.70   2.15   62.4   18.1   37.5    2.1   2.15   0.92    0.00    0.44
 1982 232    68    66   59.2    5.5   53.7   1.70   2.08   62.4   17.5   36.2    2.1   2.08   0.89    0.00    0.44
 1982 233    69    67   59.2    7.3   51.9   1.70   2.01   62.4   16.9   35.0    2.0   2.01   0.85    0.00    0.44
 1982 234    70    68   59.2    9.1   50.1   1.70   1.94   62.4   16.3   33.8    1.9   1.94   0.82    0.00    0.44
 1982 235    71    69   59.2   10.9   48.3   1.70   1.87   62.4   15.7   32.6    1.9   1.87   0.79    0.00    0.44
 1982 236    72    70   57.9   12.7   45.2   1.70   1.75   63.0   14.7   30.5    1.7   1.75   1.12    0.00    0.47
 1982 237    73    71   59.1   14.6   44.6   1.70   1.72   64.5   14.5   30.1    1.7   1.72   1.13    0.00    0.50
 1982 238    74    72   60.2   16.4   43.8   1.70   1.69   65.7   14.3   29.6    1.7   1.69   1.12    0.00    0.53
 1982 239    75    73   61.3   18.2   43.2   1.70   1.67   67.0   14.0   29.1    1.7   1.67   1.12    0.00    0.56
 1982 240    76    74   62.6   20.0   42.6   1.70   1.65   68.6   13.9   28.7    1.6   1.65   1.13    0.00    0.59
 1982 241    77    75   64.1   21.8   42.2   1.70   1.63   70.5   13.8   28.5    1.6   1.63   1.15    0.00    0.63
 1982 242    78    76   65.3   23.7   41.7   1.70   1.61   72.1   13.6   28.1    1.6   1.61   1.15    0.00    0.66
 1982 243    79    77   66.4   25.5   40.9   1.70   1.58   73.5   13.3   27.6    1.6   1.58   1.15    0.00    0.70
 1982 244    80    78   67.1   27.3   39.8   1.70   1.54   74.1   13.0   26.9    1.5   1.54   1.11    0.00    0.74
 1982 245    81    79   68.5   29.1   39.4   1.70   1.52   75.8   12.8   26.5    1.5   1.52   1.12    0.00    0.78
 1982 246    82    80   69.5   30.9   38.6   1.70   1.49   77.0   12.6   26.0    1.5   1.49   1.11    0.00    0.82
 1982 247    83    81   70.7   32.8   37.9   1.70   1.47   78.4   12.4   25.6    1.5   1.47   1.11    0.00    0.86
 1982 248    84    82   72.0   34.6   37.4   1.70   1.45   79.9   12.2   25.3    1.4   1.45   1.12    0.00    0.90
 1982 249    85    83   73.2   36.4   36.8   1.70   1.42   81.3   12.0   24.8    1.4   1.42   1.11    0.00    0.94
 1982 250    86    84   74.8   38.2   36.6   1.70   1.42   83.4   11.9   24.7    1.4   1.42   1.14    0.00    0.98
 1982 251    87    85   76.0   40.0   35.9   1.70   1.39   84.8   11.7   24.2    1.4   1.39   1.13    0.00    1.03
 1982 252    88    86   77.3   41.8   35.4   1.70   1.37   86.5   11.5   23.9    1.4   1.37   1.13    0.00    1.08
 1982 253    89    87   78.2   43.7   34.5   1.70   1.34   87.4   11.2   23.3    1.3   1.34   1.11    0.00    1.12
 1982 254    90    88   79.4   45.5   33.9   1.70   1.31   88.8   11.0   22.9    1.3   1.31   1.11    0.00    1.17
 1982 255    91    89   80.4   47.3   33.1   1.70   1.28   89.8   10.8   22.3    1.3   1.28   1.09    0.00    1.22
 1982 256    92    90   81.6   49.1   32.5   1.70   1.26   91.0   10.6   21.9    1.3   1.26   1.08    0.00    1.27
 1982 257    93    91   82.9   50.9   32.0   1.70   1.24   92.3   10.4   21.6    1.2   1.24   1.08    0.00    1.31
 1982 258    94    92   84.5   52.8   31.7   1.70   1.23   94.1   10.3   21.4    1.2   1.23   1.09    0.00    1.36
 1982 259    95    93   85.6   54.6   31.0   1.70   1.20   95.2   10.1   20.9    1.2   1.20   1.07    0.00    1.41
 1982 260    96    94   87.4   56.4   31.0   1.70   1.20   97.4   10.1   20.9    1.2   1.20   1.11    0.00    1.46
 1982 261    97    95   88.8   58.2   30.6   1.70   1.18   99.2   10.0   20.7    1.2   1.18   1.11    0.00    1.51
 1982 262    98    96   89.8   60.0   29.8   1.70   1.15  100.1    9.7   20.1    1.2   1.15   1.09    0.00    1.56
 1982 263    99    97   91.1   61.9   29.2   1.70   1.13  101.3    9.5   19.7    1.1   1.13   1.08    0.00    1.61
 1982 264   100    98   92.5   63.7   28.8   1.70   1.11  103.0    9.4   19.4    1.1   1.11   1.09    0.00    1.66
 1982 265   101    99   93.7   65.5   28.2   1.70   1.09  104.1    9.2   19.0    1.1   1.09   1.08    0.00    1.71
 1982 266   102   100   95.1   67.3   27.8   1.70   1.07  105.7    9.0   18.7    1.1   1.07   1.08    0.00    1.76
 1982 267   103   101   96.6   69.1   27.5   1.70   1.06  107.4    9.0   18.5    1.1   1.06   1.09    0.00    1.81
 1982 268   104   102   97.9   71.0   27.0   1.70   1.04  108.8    8.8   18.2    1.0   1.04   1.09    0.00    1.86
 1982 269   105   103   97.9   71.0   27.0   1.70   1.04  108.8    8.8   18.2    1.0   1.04   1.09    0.00    1.86
 1982 270   106   104   97.9   71.0   27.0   1.70   1.04  108.8    8.8   18.2    1.0   1.04   1.09    0.00    1.86
 1982 271   107   105   97.9   71.0   27.0   1.70   1.04  108.8    8.8   18.2    1.0   1.04   1.09    0.00    1.86
 1982 272   108   106   97.9   71.0   27.0   1.70   1.04  108.8    8.8   18.2    1.0   1.04   1.09    0.00    1.86

*DSSAT Cropping System Model Ver. 4.7.5.008 -release  JAN 07, 2021 20:33:24

*RUN   3        : ERiMA DCC1                MZCER047 ETMZmelk    1
 MODEL          : MZCER047 - Maize
 EXPERIMENT     : ETMZmelk SN MELKSSAL
 DATA PATH      : C:\IRI\Python_Dash\ET_DSS_hist\TEST\
 TREATMENT  1   : ERiMA DCC1                MZCER047
  
@YEAR DOY   DAS   DAP   CNAD   GNAD   VNAD   GN%D   VN%D   NUPC   LNAD   SNAD   LN%D   SN%D   RN%D   SNN0C   SNN1C
 1983 166     2     0    0.0    0.0    0.0   0.00   0.00    0.0    0.0    0.0    0.0   0.00   0.00    0.00    0.00
 1983 167     3     1    0.0    0.0    0.0   0.00   0.00    0.0    0.0    0.0    0.0   0.00   0.00    0.00    0.00
 1983 168     4     2    0.0    0.0    0.0   0.00   0.00    0.0    0.0    0.0    0.0   0.00   0.00    0.00    0.00
 1983 169     5     3    0.0    0.0    0.0   0.00   0.00    0.0    0.0    0.0    0.0   0.00   0.00    0.00    0.00
 1983 170     6     4    0.0    0.0    0.0   0.00   0.00    0.0    0.0    0.0    0.0   0.00   0.00    0.00    0.00
 1983 171     7     5    0.0    0.0    0.0   0.00   0.00    0.0    0.0    0.0    0.0   0.00   0.00    0.00    0.00
 1983 172     8     6    1.1    0.0    1.1   0.00   4.40    0.0    0.6    0.6    4.4   4.40   2.20    0.00    0.00
 1983 173     9     7    1.1    0.0    1.1   0.00   4.40    0.0    0.6    0.6    4.4   4.40   2.15    0.00    0.00
 1983 174    10     8    1.1    0.0    1.1   0.00   4.40    0.0    0.6    0.6    4.4   4.40   2.04    0.00    0.00
 1983 175    11     9    1.1    0.0    1.1   0.00   4.40    0.0    0.6    0.6    4.4   4.40   1.89    0.00    0.00
 1983 176    12    10    1.1    0.0    1.1   0.00   4.40    0.0    0.6    0.6    4.4   4.40   1.74    0.00    0.00
 1983 177    13    11    1.1    0.0    1.1   0.00   4.33    0.0    0.6    0.6    4.3   4.33   1.50    0.00    0.00
 1983 178    14    12    1.1    0.0    1.1   0.00   3.48    0.0    0.7    0.5    3.5   3.48   1.43    0.00    0.00
 1983 179    15    13    1.3    0.0    1.3   0.00   3.20    0.1    0.9    0.4    3.2   3.20   1.18    0.00    0.00
 1983 180    16    14    1.5    0.0    1.5   0.00   3.02    0.4    1.1    0.4    3.0   3.02   1.22    0.00    0.00
 1983 181    17    15    2.6    0.0    2.6   0.00   4.11    1.5    2.1    0.5    4.1   4.11   1.35    0.00    0.00
 1983 182    18    16    3.3    0.0    3.3   0.00   4.07    2.3    2.8    0.5    4.1   4.07   1.34    0.00    0.01
 1983 183    19    17    4.0    0.0    4.0   0.00   3.96    3.2    3.5    0.5    4.0   3.96   1.47    0.00    0.01
 1983 184    20    18    4.7    0.0    4.7   0.00   3.81    4.0    4.2    0.5    3.8   3.81   1.49    0.00    0.01
 1983 185    21    19    5.7    0.0    5.7   0.00   3.73    5.1    5.1    0.5    3.7   3.73   1.43    0.00    0.01
 1983 186    22    20    6.8    0.0    6.8   0.00   3.66    6.4    6.2    0.6    3.7   3.66   1.43    0.00    0.02
 1983 187    23    21    8.1    0.0    8.1   0.00   3.58    7.9    7.4    0.7    3.6   3.58   1.39    0.00    0.02
 1983 188    24    22    9.5    0.0    9.5   0.00   3.50    9.5    8.7    0.8    3.5   3.50   1.36    0.00    0.03
 1983 189    25    23   11.0    0.0   11.0   0.00   3.42   11.3   10.0    1.0    3.4   3.42   1.39    0.00    0.04
 1983 190    26    24   12.9    0.0   12.9   0.00   3.37   13.5   11.6    1.3    3.4   3.37   1.35    0.00    0.05
 1983 191    27    25   15.2    0.0   15.2   0.00   3.30   15.8   13.4    1.8    3.3   3.30   1.28    0.00    0.06
 1983 192    28    26   17.3    0.0   17.3   0.00   3.22   18.3   15.0    2.3    3.2   3.22   1.29    0.00    0.07
 1983 193    29    27   20.2    0.0   20.2   0.00   3.18   21.3   17.2    3.0    3.2   3.18   1.26    0.00    0.08
 1983 194    30    28   22.8    0.0   22.8   0.00   3.11   24.1   19.0    3.8    3.1   3.11   1.23    0.00    0.09
 1983 195    31    29   25.4    0.0   25.4   0.00   3.04   26.9   20.8    4.6    3.0   3.04   1.23    0.00    0.10
 1983 196    32    30   27.8    0.0   27.8   0.00   2.98   29.9   22.4    5.4    3.0   2.98   1.29    0.00    0.12
 1983 197    33    31   31.1    0.0   31.1   0.00   2.94   32.8   23.3    7.9    2.9   2.94   1.12    0.00    0.13
 1983 198    34    32   34.4    0.0   34.4   0.00   2.89   36.2   24.0   10.4    2.9   2.89   1.12    0.00    0.15
 1983 199    35    33   36.8    0.0   36.8   0.00   2.81   38.6   24.3   12.5    2.8   2.81   1.11    0.00    0.16
 1983 200    36    34   41.3    0.0   41.3   0.00   2.81   43.3   25.5   15.8    2.8   2.81   1.13    0.00    0.18
 1983 201    37    35   44.3    0.0   44.3   0.00   2.75   46.4   26.0   18.3    2.7   2.75   1.12    0.00    0.20
 1983 202    38    36   47.6    0.0   47.6   0.00   2.71   49.8   26.6   21.0    2.7   2.71   1.12    0.00    0.21
 1983 203    39    37   50.0    0.0   50.0   0.00   2.65   52.2   26.9   23.1    2.6   2.65   1.12    0.00    0.23
 1983 204    40    38   52.9    0.0   52.9   0.00   2.62   55.3   27.5   25.4    2.6   2.62   1.12    0.00    0.25
 1983 205    41    39   55.3    0.0   55.3   0.00   2.57   57.8   27.9   27.5    2.6   2.57   1.12    0.00    0.26
 1983 206    42    40   58.0    0.0   58.0   0.00   2.54   60.5   28.4   29.5    2.5   2.54   1.12    0.00    0.28
 1983 207    43    41   60.8    0.0   60.8   0.00   2.52   63.5   29.1   31.7    2.5   2.52   1.12    0.00    0.30
 1983 208    44    42   62.3    0.0   62.3   0.00   2.46   65.0   29.3   33.0    2.5   2.46   1.11    0.00    0.32
 1983 209    45    43   64.4    0.0   64.4   0.00   2.43   67.3   29.9   34.5    2.4   2.43   1.12    0.00    0.34
 1983 210    46    44   66.4    0.0   66.4   0.00   2.41   69.3   30.5   35.8    2.4   2.41   1.12    0.00    0.36
 1983 211    47    45   68.0    0.0   68.0   0.00   2.38   71.1   31.1   36.9    2.4   2.38   1.12    0.00    0.38
 1983 212    48    46   68.0    0.0   68.0   0.00   2.35   71.1   30.3   37.7    2.3   2.35   1.11    0.00    0.38
 1983 213    49    47   68.6    0.0   68.6   0.00   2.33   71.8   29.8   38.9    2.3   2.33   1.11    0.00    0.40
 1983 214    50    48   69.7    0.0   69.7   0.00   2.33   73.1   29.3   40.4    2.3   2.33   1.11    0.00    0.42
 1983 215    51    49   69.7    0.0   69.7   0.00   2.31   73.1   28.6   41.2    2.3   2.31   1.09    0.00    0.42
 1983 216    52    50   69.7    0.0   69.7   0.00   2.29   73.1   27.9   41.9    2.3   2.29   1.08    0.00    0.42
 1983 217    53    51   69.7    0.0   69.7   0.00   2.27   73.1   27.2   42.6    2.3   2.27   1.06    0.00    0.42
 1983 218    54    52   69.7    0.0   69.7   0.00   2.26   73.1   26.5   43.2    2.3   2.26   1.04    0.00    0.42
 1983 219    55    53   69.7    0.0   69.7   0.00   2.25   73.1   25.9   43.8    2.3   2.25   1.03    0.00    0.42
 1983 220    56    54   69.7    0.0   69.7   0.00   2.25   73.1   25.4   44.4    2.3   2.25   1.02    0.00    0.42
 1983 221    57    55   69.7    0.0   69.7   0.00   2.25   73.1   24.7   45.0    2.2   2.25   1.00    0.00    0.42
 1983 222    58    56   69.7    0.0   69.7   0.00   2.25   73.1   24.1   45.6    2.2   2.25   0.99    0.00    0.42
 1983 223    59    57   69.7    0.0   69.7   0.00   2.25   73.1   23.6   46.2    2.3   2.25   0.98    0.00    0.42
 1983 224    60    58   69.7    0.0   69.7   0.00   2.26   73.1   23.0   46.7    2.3   2.26   0.97    0.00    0.42
 1983 225    61    59   69.7    0.0   69.7   0.00   2.27   73.1   22.4   47.3    2.3   2.27   0.96    0.00    0.42
 1983 226    62    60   69.7    2.0   67.7   1.70   2.21   73.1   21.8   45.9    2.2   2.21   0.97    0.00    0.42
 1983 227    63    61   69.7    4.0   65.7   1.70   2.18   73.1   21.5   44.2    2.2   2.18   0.97    0.00    0.42
 1983 228    64    62   69.7    6.0   63.7   1.70   2.11   73.1   20.8   43.0    2.1   2.11   0.96    0.00    0.42
 1983 229    65    63   69.7    8.0   61.8   1.70   2.03   73.1   20.0   41.7    2.0   2.03   0.95    0.00    0.42
 1983 230    66    64   69.7   10.0   59.8   1.70   1.95   73.1   19.3   40.5    2.0   1.95   0.94    0.00    0.42
 1983 231    67    65   69.7   12.0   57.8   1.70   1.88   73.1   18.6   39.2    1.9   1.88   0.91    0.00    0.42
 1983 232    68    66   69.7   14.0   55.8   1.70   1.82   73.1   17.9   37.8    1.8   1.82   0.87    0.00    0.42
 1983 233    69    67   69.7   15.9   53.8   1.70   1.75   73.1   17.3   36.5    1.8   1.75   0.86    0.00    0.42
 1983 234    70    68   68.8   17.9   50.9   1.70   1.66   73.5   16.4   34.5    1.7   1.66   1.11    0.00    0.44
 1983 235    71    69   70.1   19.9   50.2   1.70   1.63   75.0   16.1   34.0    1.6   1.63   1.12    0.00    0.47
 1983 236    72    70   70.1   21.9   48.2   1.70   1.60   75.0   15.8   32.4    1.6   1.60   1.12    0.00    0.47
 1983 237    73    71   71.4   23.9   47.5   1.70   1.57   76.2   15.5   32.0    1.6   1.57   1.09    0.00    0.50
 1983 238    74    72   73.3   25.9   47.4   1.70   1.55   78.5   15.3   32.1    1.5   1.55   1.13    0.00    0.53
 1983 239    75    73   75.2   27.9   47.3   1.70   1.54   80.8   15.2   32.1    1.5   1.54   1.14    0.00    0.56
 1983 240    76    74   76.4   29.9   46.5   1.70   1.51   82.1   14.9   31.5    1.5   1.51   1.14    0.00    0.59
 1983 241    77    75   77.4   31.9   45.5   1.70   1.48   83.2   14.6   30.9    1.5   1.48   1.12    0.00    0.63
 1983 242    78    76   78.3   33.9   44.4   1.70   1.45   84.1   14.3   30.1    1.4   1.45   1.10    0.00    0.66
 1983 243    79    77   79.3   35.9   43.5   1.70   1.42   85.1   14.0   29.5    1.4   1.42   1.08    0.00    0.69
 1983 244    80    78   81.2   37.9   43.4   1.70   1.41   87.4   14.0   29.4    1.4   1.41   1.12    0.00    0.72
 1983 245    81    79   82.4   39.9   42.6   1.70   1.39   88.8   13.7   28.9    1.4   1.39   1.11    0.00    0.76
 1983 246    82    80   84.0   41.9   42.1   1.70   1.37   90.7   13.5   28.6    1.4   1.37   1.13    0.00    0.79
 1983 247    83    81   85.4   43.9   41.5   1.70   1.35   92.4   13.4   28.2    1.4   1.35   1.14    0.00    0.83
 1983 248    84    82   86.5   45.8   40.7   1.70   1.32   93.6   13.1   27.6    1.3   1.32   1.12    0.00    0.87
 1983 249    85    83   87.8   47.8   40.0   1.70   1.30   95.0   12.9   27.1    1.3   1.30   1.11    0.00    0.91
 1983 250    86    84   89.4   49.8   39.6   1.70   1.29   96.9   12.7   26.8    1.3   1.29   1.12    0.00    0.95
 1983 251    87    85   90.8   51.8   38.9   1.70   1.27   98.5   12.5   26.4    1.3   1.27   1.12    0.00    0.99
 1983 252    88    86   91.9   53.8   38.1   1.70   1.24   99.6   12.3   25.8    1.2   1.24   1.10    0.00    1.03
 1983 253    89    87   93.3   55.8   37.4   1.70   1.22  101.0   12.0   25.4    1.2   1.22   1.09    0.00    1.07
 1983 254    90    88   94.7   57.8   36.9   1.70   1.20  102.5   11.9   25.0    1.2   1.20   1.09    0.00    1.11
 1983 255    91    89   96.1   59.8   36.3   1.70   1.18  104.1   11.7   24.6    1.2   1.18   1.09    0.00    1.15
 1983 256    92    90   97.6   61.8   35.8   1.70   1.17  105.8   11.5   24.3    1.2   1.17   1.10    0.00    1.19
 1983 257    93    91   98.9   63.8   35.2   1.70   1.15  107.2   11.3   23.8    1.1   1.15   1.09    0.00    1.23
 1983 258    94    92   99.9   65.8   34.1   1.70   1.12  108.0   11.0   23.1    1.1   1.12   1.06    0.00    1.27
 1983 259    95    93  101.5   67.8   33.7   1.70   1.10  109.7   10.9   22.9    1.1   1.10   1.08    0.00    1.31
 1983 260    96    94  103.0   69.8   33.2   1.70   1.08  111.2   10.7   22.5    1.1   1.08   1.07    0.00    1.36
 1983 261    97    95  104.2   71.8   32.4   1.70   1.06  112.3   10.5   21.9    1.1   1.06   1.07    0.00    1.40
 1983 262    98    96  105.6   73.8   31.9   1.70   1.04  113.7   10.3   21.6    1.0   1.04   1.07    0.00    1.44
 1983 263    99    97  107.0   75.7   31.3   1.70   1.03  115.1   10.1   21.1    1.0   1.03   1.07    0.00    1.48
 1983 264   100    98  108.4   77.7   30.7   1.70   1.01  116.6   10.0   20.7    1.0   1.01   1.07    0.00    1.52
 1983 265   101    99  108.4   77.7   30.7   1.70   1.01  116.6   10.0   20.7    1.0   1.01   1.07    0.00    1.52
 1983 266   102   100  108.4   77.7   30.7   1.70   1.01  116.6   10.0   20.7    1.0   1.01   1.07    0.00    1.52
 1983 267   103   101  108.4   77.7   30.7   1.70   1.01  116.6   10.0   20.7    1.0   1.01   1.07    0.00    1.52

*DSSAT Cropping System Model Ver. 4.7.5.008 -release  JAN 07, 2021 20:33:24

*RUN   4        : ERiMA DCC1                MZCER047 ETMZmelk    1
 MODEL          : MZCER047 - Maize
 EXPERIMENT     : ETMZmelk SN MELKSSAL
 DATA PATH      : C:\IRI\Python_Dash\ET_DSS_hist\TEST\
 TREATMENT  1   : ERiMA DCC1                MZCER047
  
@YEAR DOY   DAS   DAP   CNAD   GNAD   VNAD   GN%D   VN%D   NUPC   LNAD   SNAD   LN%D   SN%D   RN%D   SNN0C   SNN1C
 1984 166     2     0    0.0    0.0    0.0   0.00   0.00    0.0    0.0    0.0    0.0   0.00   0.00    0.00    0.00
 1984 167     3     1    0.0    0.0    0.0   0.00   0.00    0.0    0.0    0.0    0.0   0.00   0.00    0.00    0.00
 1984 168     4     2    0.0    0.0    0.0   0.00   0.00    0.0    0.0    0.0    0.0   0.00   0.00    0.00    0.00
 1984 169     5     3    0.0    0.0    0.0   0.00   0.00    0.0    0.0    0.0    0.0   0.00   0.00    0.00    0.00
 1984 170     6     4    0.0    0.0    0.0   0.00   0.00    0.0    0.0    0.0    0.0   0.00   0.00    0.00    0.00
 1984 171     7     5    0.0    0.0    0.0   0.00   0.00    0.0    0.0    0.0    0.0   0.00   0.00    0.00    0.00
 1984 172     8     6    1.1    0.0    1.1   0.00   4.40    0.0    0.6    0.6    4.4   4.40   2.20    0.00    0.00
 1984 173     9     7    1.1    0.0    1.1   0.00   4.40    0.0    0.6    0.6    4.4   4.40   2.17    0.00    0.00
 1984 174    10     8    1.1    0.0    1.1   0.00   4.40    0.0    0.6    0.6    4.4   4.40   2.09    0.00    0.00
 1984 175    11     9    1.1    0.0    1.1   0.00   4.40    0.0    0.6    0.6    4.4   4.40   1.98    0.00    0.00
 1984 176    12    10    1.1    0.0    1.1   0.00   4.40    0.0    0.6    0.6    4.4   4.40   1.82    0.00    0.00
 1984 177    13    11    1.1    0.0    1.1   0.00   4.40    0.0    0.6    0.6    4.4   4.40   1.64    0.00    0.00
 1984 178    14    12    1.1    0.0    1.1   0.00   4.33    0.0    0.6    0.6    4.3   4.33   1.44    0.00    0.00
 1984 179    15    13    1.1    0.0    1.1   0.00   3.53    0.0    0.7    0.5    3.5   3.53   1.37    0.00    0.00
 1984 180    16    14    1.3    0.0    1.3   0.00   3.09    0.1    0.9    0.4    3.1   3.09   1.21    0.00    0.00
 1984 181    17    15    1.6    0.0    1.6   0.00   3.08    0.5    1.2    0.4    3.1   3.08   1.30    0.00    0.00
 1984 182    18    16    2.6    0.0    2.6   0.00   4.10    1.5    2.0    0.5    4.1   4.10   1.35    0.00    0.00
 1984 183    19    17    3.0    0.0    3.0   0.00   3.99    2.1    2.5    0.5    4.0   3.99   1.45    0.00    0.01
 1984 184    20    18    3.6    0.0    3.6   0.00   3.92    2.8    3.1    0.5    3.9   3.92   1.46    0.00    0.01
 1984 185    21    19    4.0    0.0    4.0   0.00   3.76    3.4    3.5    0.5    3.8   3.76   1.45    0.00    0.01
 1984 186    22    20    4.6    0.0    4.6   0.00   3.71    4.1    4.1    0.5    3.7   3.71   1.38    0.00    0.02
 1984 187    23    21    5.3    0.0    5.3   0.00   3.66    5.0    4.8    0.5    3.7   3.66   1.38    0.00    0.02
 1984 188    24    22    6.2    0.0    6.2   0.00   3.61    6.0    5.6    0.5    3.6   3.61   1.37    0.00    0.03
 1984 189    25    23    7.2    0.0    7.2   0.00   3.55    7.4    6.6    0.6    3.6   3.55   1.39    0.00    0.03
 1984 190    26    24    8.2    0.0    8.2   0.00   3.47    8.5    7.5    0.7    3.5   3.47   1.33    0.00    0.04
 1984 191    27    25    9.5    0.0    9.5   0.00   3.42   10.2    8.7    0.8    3.4   3.42   1.35    0.00    0.05
 1984 192    28    26   10.9    0.0   10.9   0.00   3.36   11.6    9.9    1.0    3.4   3.36   1.26    0.00    0.06
 1984 193    29    27   12.4    0.0   12.4   0.00   3.30   13.3   11.1    1.3    3.3   3.30   1.25    0.00    0.07
 1984 194    30    28   13.9    0.0   13.9   0.00   3.24   15.4   12.3    1.6    3.2   3.24   1.35    0.00    0.08
 1984 195    31    29   15.8    0.0   15.8   0.00   3.20   17.5   13.8    2.0    3.2   3.20   1.28    0.00    0.09
 1984 196    32    30   17.7    0.0   17.7   0.00   3.14   19.4   15.3    2.4    3.1   3.14   1.19    0.00    0.11
 1984 197    33    31   19.8    0.0   19.8   0.00   3.09   21.7   16.8    3.0    3.1   3.09   1.19    0.00    0.13
 1984 198    34    32   21.7    0.0   21.7   0.00   3.03   24.2   18.1    3.5    3.0   3.03   1.29    0.00    0.14
 1984 199    35    33   23.8    0.0   23.8   0.00   2.99   26.6   19.6    4.2    3.0   2.99   1.23    0.00    0.16
 1984 200    36    34   26.4    0.0   26.4   0.00   2.96   29.3   21.4    5.0    3.0   2.96   1.19    0.00    0.18
 1984 201    37    35   29.1    0.0   29.1   0.00   2.92   32.1   23.1    5.9    2.9   2.92   1.16    0.00    0.20
 1984 202    38    36   32.8    0.0   32.8   0.00   2.89   35.7   24.0    8.8    2.9   2.89   1.11    0.00    0.22
 1984 203    39    37   34.9    0.0   34.9   0.00   2.81   37.9   24.2   10.8    2.8   2.81   1.10    0.00    0.24
 1984 204    40    38   39.5    0.0   39.5   0.00   2.81   42.6   25.4   14.1    2.8   2.81   1.11    0.00    0.26
 1984 205    41    39   43.0    0.0   43.0   0.00   2.76   46.2   26.0   17.0    2.8   2.76   1.11    0.00    0.29
 1984 206    42    40   45.7    0.0   45.7   0.00   2.69   49.0   26.4   19.3    2.7   2.69   1.11    0.00    0.31
 1984 207    43    41   49.0    0.0   49.0   0.00   2.66   52.4   27.1   22.0    2.7   2.66   1.11    0.00    0.33
 1984 208    44    42   52.0    0.0   52.0   0.00   2.63   55.5   27.6   24.4    2.6   2.63   1.11    0.00    0.35
 1984 209    45    43   55.6    0.0   55.6   0.00   2.61   59.2   28.5   27.1    2.6   2.61   1.12    0.00    0.37
 1984 210    46    44   57.9    0.0   57.9   0.00   2.55   61.7   28.9   29.0    2.6   2.55   1.11    0.00    0.40
 1984 211    47    45   60.3    0.0   60.3   0.00   2.52   64.2   29.5   30.8    2.5   2.52   1.11    0.00    0.42
 1984 212    48    46   61.7    0.0   61.7   0.00   2.46   65.7   29.6   32.1    2.5   2.46   1.10    0.00    0.45
 1984 213    49    47   64.4    0.0   64.4   0.00   2.45   68.4   30.6   33.8    2.5   2.45   1.11    0.00    0.47
 1984 214    50    48   65.8    0.0   65.8   0.00   2.42   70.0   31.0   34.8    2.4   2.42   1.11    0.00    0.50
 1984 215    51    49   67.2    0.0   67.2   0.00   2.38   71.4   31.5   35.7    2.4   2.38   1.11    0.00    0.52
 1984 216    52    50   69.7    0.0   69.7   0.00   2.41   74.0   31.5   38.2    2.4   2.41   1.11    0.00    0.55
 1984 217    53    51   69.7    0.0   69.7   0.00   2.37   74.0   30.5   39.1    2.4   2.37   1.09    0.00    0.55
 1984 218    54    52   69.7    0.0   69.7   0.00   2.34   74.0   29.8   39.9    2.3   2.34   1.08    0.00    0.55
 1984 219    55    53   69.7    0.0   69.7   0.00   2.32   74.0   29.0   40.7    2.3   2.32   1.07    0.00    0.55
 1984 220    56    54   69.7    0.0   69.7   0.00   2.29   74.0   28.2   41.4    2.3   2.29   1.05    0.00    0.55
 1984 221    57    55   69.7    0.0   69.7   0.00   2.27   74.0   27.5   42.1    2.3   2.27   1.04    0.00    0.55
 1984 222    58    56   69.7    0.0   69.7   0.00   2.26   74.0   26.9   42.8    2.3   2.26   1.03    0.00    0.55
 1984 223    59    57   69.7    0.0   69.7   0.00   2.25   74.0   26.2   43.5    2.2   2.25   1.01    0.00    0.55
 1984 224    60    58   69.7    0.0   69.7   0.00   2.24   74.0   25.5   44.1    2.2   2.24   1.00    0.00    0.55
 1984 225    61    59   69.7    0.0   69.7   0.00   2.23   74.0   24.9   44.7    2.2   2.23   0.99    0.00    0.55
 1984 226    62    60   69.7    0.0   69.7   0.00   2.23   74.0   24.3   45.4    2.2   2.23   0.98    0.00    0.55
 1984 227    63    61   69.7    0.0   69.7   0.00   2.23   74.0   23.7   46.0    2.2   2.23   0.97    0.00    0.55
 1984 228    64    62   69.7    0.0   69.7   0.00   2.23   74.0   23.1   46.6    2.2   2.23   0.96    0.00    0.55
 1984 229    65    63   69.7    0.0   69.7   0.00   2.23   74.0   22.5   47.2    2.2   2.23   0.95    0.00    0.55
 1984 230    66    64   69.7    2.2   67.5   1.70   2.17   74.0   21.8   45.7    2.2   2.17   0.92    0.00    0.55
 1984 231    67    65   69.7    4.3   65.3   1.70   2.10   74.0   21.1   44.2    2.1   2.10   0.91    0.00    0.55
 1984 232    68    66   69.7    6.5   63.1   1.70   2.03   74.0   20.4   42.8    2.0   2.03   0.88    0.00    0.55
 1984 233    69    67   69.7    8.7   61.0   1.70   1.96   74.0   19.7   41.3    2.0   1.96   0.84    0.00    0.55
 1984 234    70    68   69.7   10.9   58.8   1.70   1.89   74.0   19.0   39.8    1.9   1.89   0.82    0.00    0.55
 1984 235    71    69   68.4   13.0   55.4   1.70   1.78   75.1   17.9   37.5    1.8   1.78   1.13    0.00    0.57
 1984 236    72    70   69.6   15.2   54.4   1.70   1.74   76.5   17.5   36.8    1.7   1.74   1.13    0.00    0.61
 1984 237    73    71   71.1   17.5   53.7   1.71   1.72   78.3   17.3   36.4    1.7   1.72   1.13    0.00    0.65
 1984 238    74    72   72.4   19.4   53.0   1.72   1.70   79.6   17.1   35.9    1.7   1.70   1.12    0.00    0.69
 1984 239    75    73   73.7   21.3   52.4   1.73   1.68   81.0   16.9   35.5    1.7   1.68   1.12    0.00    0.73
 1984 240    76    74   74.3   23.2   51.1   1.73   1.64   81.5   16.5   34.6    1.6   1.64   1.09    0.00    0.77
 1984 241    77    75   75.4   25.4   50.0   1.73   1.61   82.9   16.1   33.9    1.6   1.61   1.11    0.00    0.81
 1984 242    78    76   76.7   27.5   49.2   1.73   1.58   84.4   15.9   33.3    1.6   1.58   1.11    0.00    0.85
 1984 243    79    77   77.9   29.7   48.2   1.73   1.55   85.6   15.5   32.6    1.5   1.55   1.09    0.00    0.89
 1984 244    80    78   79.7   31.9   47.8   1.72   1.53   87.7   15.4   32.4    1.5   1.53   1.11    0.00    0.93
 1984 245    81    79   81.2   34.0   47.2   1.73   1.52   89.5   15.2   32.0    1.5   1.52   1.12    0.00    0.97
 1984 246    82    80   82.4   36.1   46.3   1.73   1.49   90.7   14.9   31.4    1.5   1.49   1.10    0.00    1.02
 1984 247    83    81   83.9   38.3   45.6   1.73   1.46   92.5   14.7   30.9    1.5   1.46   1.11    0.00    1.06
 1984 248    84    82   85.1   40.5   44.6   1.73   1.43   93.8   14.4   30.2    1.4   1.43   1.10    0.00    1.11
 1984 249    85    83   86.6   42.7   43.9   1.73   1.41   95.4   14.2   29.8    1.4   1.41   1.10    0.00    1.15
 1984 250    86    84   87.9   44.8   43.1   1.73   1.38   96.8   13.9   29.2    1.4   1.38   1.09    0.00    1.20
 1984 251    87    85   89.4   47.0   42.4   1.73   1.36   98.5   13.7   28.7    1.4   1.36   1.10    0.00    1.24
 1984 252    88    86   90.9   49.2   41.8   1.73   1.34  100.1   13.5   28.3    1.3   1.34   1.09    0.00    1.29
 1984 253    89    87   92.6   51.3   41.2   1.72   1.32  102.0   13.3   27.9    1.3   1.32   1.10    0.00    1.34
 1984 254    90    88   94.2   53.5   40.7   1.72   1.30  103.9   13.1   27.5    1.3   1.30   1.11    0.00    1.38
 1984 255    91    89   95.5   55.7   39.8   1.72   1.28  105.1   12.8   27.0    1.3   1.28   1.09    0.00    1.43
 1984 256    92    90   96.6   57.9   38.7   1.72   1.24  106.0   12.5   26.2    1.2   1.24   1.06    0.00    1.48
 1984 257    93    91   98.7   60.0   38.7   1.72   1.24  108.6   12.5   26.2    1.2   1.24   1.10    0.00    1.53
 1984 258    94    92  100.3   62.2   38.1   1.72   1.22  110.3   12.3   25.8    1.2   1.22   1.10    0.00    1.58
 1984 259    95    93  101.8   64.4   37.5   1.72   1.20  112.0   12.1   25.4    1.2   1.20   1.09    0.00    1.63
 1984 260    96    94  103.3   66.6   36.7   1.72   1.18  113.4   11.8   24.9    1.2   1.18   1.08    0.00    1.68
 1984 261    97    95  105.1   68.7   36.4   1.72   1.17  115.5   11.7   24.7    1.2   1.17   1.09    0.00    1.72
 1984 262    98    96  106.7   70.9   35.8   1.72   1.15  117.2   11.5   24.2    1.1   1.15   1.09    0.00    1.78
 1984 263    99    97  108.1   73.1   35.1   1.72   1.12  118.6   11.3   23.8    1.1   1.12   1.08    0.00    1.83
 1984 264   100    98  109.6   75.3   34.4   1.72   1.10  120.1   11.1   23.3    1.1   1.10   1.08    0.00    1.88
 1984 265   101    99  111.1   77.4   33.7   1.72   1.08  121.6   10.9   22.8    1.1   1.08   1.07    0.00    1.93
 1984 266   102   100  112.3   79.6   32.7   1.72   1.05  122.7   10.6   22.1    1.1   1.05   1.07    0.00    1.98
 1984 267   103   101  113.4   81.8   31.6   1.72   1.02  123.9   10.2   21.4    1.0   1.02   1.07    0.00    2.03
 1984 268   104   102  114.4   84.0   30.4   1.71   0.98  124.9    9.8   20.6    1.0   0.98   1.07    0.00    2.08
 1984 269   105   103  115.2   86.1   29.1   1.71   0.93  125.9    9.4   19.7    0.9   0.93   1.07    0.00    2.13
 1984 270   106   104  115.2   86.1   29.1   1.71   0.93  125.9    9.4   19.7    0.9   0.93   1.07    0.00    2.13
 1984 271   107   105  115.2   86.1   29.1   1.71   0.93  125.9    9.4   19.7    0.9   0.93   1.07    0.00    2.13
 1984 272   108   106  115.2   86.1   29.1   1.71   0.93  125.9    9.4   19.7    0.9   0.93   1.07    0.00    2.13

*DSSAT Cropping System Model Ver. 4.7.5.008 -release  JAN 07, 2021 20:33:24

*RUN   5        : ERiMA DCC1                MZCER047 ETMZmelk    1
 MODEL          : MZCER047 - Maize
 EXPERIMENT     : ETMZmelk SN MELKSSAL
 DATA PATH      : C:\IRI\Python_Dash\ET_DSS_hist\TEST\
 TREATMENT  1   : ERiMA DCC1                MZCER047
  
@YEAR DOY   DAS   DAP   CNAD   GNAD   VNAD   GN%D   VN%D   NUPC   LNAD   SNAD   LN%D   SN%D   RN%D   SNN0C   SNN1C
 1985 166     2     0    0.0    0.0    0.0   0.00   0.00    0.0    0.0    0.0    0.0   0.00   0.00    0.00    0.00
 1985 167     3     1    0.0    0.0    0.0   0.00   0.00    0.0    0.0    0.0    0.0   0.00   0.00    0.00    0.00
 1985 168     4     2    0.0    0.0    0.0   0.00   0.00    0.0    0.0    0.0    0.0   0.00   0.00    0.00    0.00
 1985 169     5     3    0.0    0.0    0.0   0.00   0.00    0.0    0.0    0.0    0.0   0.00   0.00    0.00    0.00
 1985 170     6     4    0.0    0.0    0.0   0.00   0.00    0.0    0.0    0.0    0.0   0.00   0.00    0.00    0.00
 1985 171     7     5    0.0    0.0    0.0   0.00   0.00    0.0    0.0    0.0    0.0   0.00   0.00    0.00    0.00
 1985 172     8     6    1.1    0.0    1.1   0.00   4.40    0.0    0.6    0.6    4.4   4.40   2.20    0.00    0.00
 1985 173     9     7    1.1    0.0    1.1   0.00   4.40    0.0    0.6    0.6    4.4   4.40   2.15    0.00    0.00
 1985 174    10     8    1.1    0.0    1.1   0.00   4.40    0.0    0.6    0.6    4.4   4.40   2.06    0.00    0.00
 1985 175    11     9    1.1    0.0    1.1   0.00   4.40    0.0    0.6    0.6    4.4   4.40   1.94    0.00    0.00
 1985 176    12    10    1.1    0.0    1.1   0.00   4.40    0.0    0.6    0.6    4.4   4.40   1.80    0.00    0.00
 1985 177    13    11    1.1    0.0    1.1   0.00   4.40    0.0    0.6    0.6    4.4   4.40   1.63    0.00    0.00
 1985 178    14    12    1.1    0.0    1.1   0.00   4.27    0.0    0.6    0.6    4.3   4.27   1.45    0.00    0.00
 1985 179    15    13    1.1    0.0    1.1   0.00   3.52    0.0    0.7    0.5    3.5   3.52   1.35    0.00    0.00
 1985 180    16    14    1.3    0.0    1.3   0.00   3.03    0.1    0.9    0.4    3.0   3.03   1.23    0.00    0.00
 1985 181    17    15    1.6    0.0    1.6   0.00   3.09    0.5    1.2    0.4    3.1   3.09   1.37    0.00    0.00
 1985 182    18    16    2.5    0.0    2.5   0.00   4.05    1.5    2.0    0.5    4.1   4.05   1.35    0.00    0.00
 1985 183    19    17    3.0    0.0    3.0   0.00   4.00    2.1    2.5    0.5    4.0   4.00   1.37    0.00    0.01
 1985 184    20    18    3.5    0.0    3.5   0.00   3.89    2.6    2.9    0.5    3.9   3.89   1.33    0.00    0.01
 1985 185    21    19    3.9    0.0    3.9   0.00   3.76    3.1    3.4    0.5    3.8   3.76   1.26    0.00    0.01
 1985 186    22    20    4.4    0.0    4.4   0.00   3.69    3.9    3.9    0.5    3.7   3.69   1.50    0.00    0.02
 1985 187    23    21    5.1    0.0    5.1   0.00   3.67    4.6    4.6    0.5    3.7   3.67   1.26    0.00    0.02
 1985 188    24    22    5.9    0.0    5.9   0.00   3.61    5.6    5.4    0.5    3.6   3.61   1.39    0.00    0.02
 1985 189    25    23    6.7    0.0    6.7   0.00   3.53    6.6    6.1    0.6    3.5   3.53   1.38    0.00    0.03
 1985 190    26    24    7.7    0.0    7.7   0.00   3.49    7.8    7.0    0.6    3.5   3.49   1.36    0.00    0.04
 1985 191    27    25    8.7    0.0    8.7   0.00   3.43    9.0    8.0    0.7    3.4   3.43   1.32    0.00    0.04
 1985 192    28    26    9.9    0.0    9.9   0.00   3.37   10.4    9.0    0.9    3.4   3.37   1.30    0.00    0.05
 1985 193    29    27   11.1    0.0   11.1   0.00   3.31   11.8   10.0    1.1    3.3   3.31   1.28    0.00    0.06
 1985 194    30    28   12.6    0.0   12.6   0.00   3.27   13.6   11.3    1.3    3.3   3.27   1.28    0.00    0.07
 1985 195    31    29   13.8    0.0   13.8   0.00   3.20   15.1   12.2    1.6    3.2   3.20   1.30    0.00    0.08
 1985 196    32    30   15.7    0.0   15.7   0.00   3.18   17.1   13.7    2.0    3.2   3.18   1.24    0.00    0.10
 1985 197    33    31   17.5    0.0   17.5   0.00   3.13   19.1   15.1    2.4    3.1   3.13   1.21    0.00    0.11
 1985 198    34    32   19.6    0.0   19.6   0.00   3.09   21.9   16.7    2.9    3.1   3.09   1.30    0.00    0.13
 1985 199    35    33   21.8    0.0   21.8   0.00   3.04   24.3   18.3    3.6    3.0   3.04   1.26    0.00    0.14
 1985 200    36    34   23.7    0.0   23.7   0.00   2.98   26.7   19.6    4.1    3.0   2.98   1.27    0.00    0.16
 1985 201    37    35   25.6    0.0   25.6   0.00   2.92   28.0   20.8    4.8    2.9   2.92   1.09    0.00    0.18
 1985 202    38    36   29.0    0.0   29.0   0.00   2.93   32.3   23.1    5.8    2.9   2.93   1.24    0.00    0.20
 1985 203    39    37   32.6    0.0   32.6   0.00   2.88   35.6   23.9    8.7    2.9   2.88   1.11    0.00    0.22
 1985 204    40    38   36.1    0.0   36.1   0.00   2.83   39.1   24.6   11.5    2.8   2.83   1.11    0.00    0.24
 1985 205    41    39   38.6    0.0   38.6   0.00   2.77   41.7   24.9   13.7    2.8   2.77   1.10    0.00    0.27
 1985 206    42    40   41.5    0.0   41.5   0.00   2.72   44.7   25.4   16.1    2.7   2.72   1.10    0.00    0.29
 1985 207    43    41   43.6    0.0   43.6   0.00   2.67   46.9   25.6   18.0    2.7   2.67   1.10    0.00    0.31
 1985 208    44    42   46.0    0.0   46.0   0.00   2.58   49.3   25.8   20.2    2.6   2.58   1.10    0.00    0.33
 1985 209    45    43   47.6    0.0   47.6   0.00   2.49   51.0   25.7   21.9    2.5   2.49   1.09    0.00    0.35
 1985 210    46    44   49.0    0.0   49.0   0.00   2.45   52.4   25.8   23.2    2.4   2.45   1.08    0.00    0.37
 1985 211    47    45   54.2    0.0   54.2   0.00   2.55   57.8   27.7   26.5    2.5   2.55   1.11    0.00    0.40
 1985 212    48    46   56.6    0.0   56.6   0.00   2.52   60.3   28.3   28.3    2.5   2.52   1.11    0.00    0.42
 1985 213    49    47   57.9    0.0   57.9   0.00   2.46   61.7   28.4   29.5    2.5   2.46   1.10    0.00    0.44
 1985 214    50    48   61.7    0.0   61.7   0.00   2.50   65.6   29.9   31.7    2.5   2.50   1.12    0.00    0.47
 1985 215    51    49   62.0    0.0   62.0   0.00   2.41   66.0   29.7   32.3    2.4   2.41   1.10    0.00    0.49
 1985 216    52    50   63.8    0.0   63.8   0.00   2.39   67.9   30.4   33.4    2.4   2.39   1.11    0.00    0.52
 1985 217    53    51   63.8    0.0   63.8   0.00   2.34   67.9   30.1   33.7    2.3   2.34   1.10    0.00    0.52
 1985 218    54    52   67.6    0.0   67.6   0.00   2.41   71.9   30.7   36.9    2.4   2.41   1.11    0.00    0.54
 1985 219    55    53   67.6    0.0   67.6   0.00   2.38   71.9   29.8   37.8    2.4   2.38   1.09    0.00    0.54
 1985 220    56    54   67.6    0.0   67.6   0.00   2.35   71.9   29.0   38.6    2.3   2.35   1.08    0.00    0.54
 1985 221    57    55   67.6    0.0   67.6   0.00   2.32   71.9   28.3   39.3    2.3   2.32   1.07    0.00    0.54
 1985 222    58    56   67.6    0.0   67.6   0.00   2.30   71.9   27.6   40.0    2.3   2.30   1.06    0.00    0.54
 1985 223    59    57   67.6    0.0   67.6   0.00   2.29   71.9   26.9   40.7    2.3   2.29   1.04    0.00    0.54
 1985 224    60    58   67.6    0.0   67.6   0.00   2.28   71.9   26.3   41.3    2.3   2.28   1.03    0.00    0.54
 1985 225    61    59   67.6    0.0   67.6   0.00   2.26   71.9   25.6   42.0    2.3   2.26   1.02    0.00    0.54
 1985 226    62    60   67.6    0.0   67.6   0.00   2.26   71.9   25.0   42.6    2.3   2.26   1.01    0.00    0.54
 1985 227    63    61   67.6    0.0   67.6   0.00   2.25   71.9   24.4   43.2    2.3   2.25   1.00    0.00    0.54
 1985 228    64    62   67.6    0.0   67.6   0.00   2.25   71.9   23.8   43.8    2.3   2.25   0.99    0.00    0.54
 1985 229    65    63   67.6    0.0   67.6   0.00   2.25   71.9   23.2   44.4    2.3   2.25   0.98    0.00    0.54
 1985 230    66    64   67.6    0.0   67.6   0.00   2.25   71.9   22.6   45.0    2.3   2.25   0.97    0.00    0.54
 1985 231    67    65   67.6    0.0   67.6   0.00   2.26   71.9   22.0   45.6    2.3   2.26   0.96    0.00    0.54
 1985 232    68    66   67.6    0.0   67.6   0.00   2.26   71.9   21.4   46.2    2.3   2.26   0.95    0.00    0.54
 1985 233    69    67   67.6    2.1   65.5   1.70   2.19   71.9   20.7   44.8    2.2   2.19   0.94    0.00    0.54
 1985 234    70    68   67.6    4.2   63.4   1.70   2.12   71.9   20.1   43.3    2.1   2.12   0.92    0.00    0.54
 1985 235    71    69   67.6    6.3   61.3   1.70   2.05   71.9   19.4   41.9    2.0   2.05   0.89    0.00    0.54
 1985 236    72    70   67.6    8.4   59.2   1.70   1.98   71.9   18.7   40.4    2.0   1.98   0.86    0.00    0.54
 1985 237    73    71   67.6   10.5   57.1   1.70   1.91   71.9   18.1   39.0    1.9   1.91   0.84    0.00    0.54
 1985 238    74    72   67.6   12.6   55.0   1.70   1.84   71.9   17.4   37.6    1.8   1.84   0.82    0.00    0.54
 1985 239    75    73   66.9   14.7   52.2   1.70   1.75   73.3   16.5   35.7    1.7   1.75   1.12    0.00    0.57
 1985 240    76    74   67.9   16.8   51.1   1.70   1.71   74.2   16.2   34.9    1.7   1.71   1.09    0.00    0.60
 1985 241    77    75   69.8   18.9   50.9   1.70   1.70   76.5   16.1   34.8    1.7   1.70   1.12    0.00    0.64
 1985 242    78    76   70.8   21.0   49.8   1.70   1.66   77.5   15.8   34.1    1.7   1.66   1.10    0.00    0.68
 1985 243    79    77   71.9   23.1   48.8   1.70   1.63   78.5   15.5   33.4    1.6   1.63   1.07    0.00    0.72
 1985 244    80    78   74.3   25.2   49.1   1.70   1.64   81.5   15.5   33.6    1.6   1.64   1.13    0.00    0.75
 1985 245    81    79   75.3   27.3   47.9   1.70   1.60   82.4   15.2   32.8    1.6   1.60   1.11    0.00    0.79
 1985 246    82    80   76.9   29.4   47.5   1.70   1.59   84.4   15.0   32.5    1.6   1.59   1.12    0.00    0.83
 1985 247    83    81   78.3   31.5   46.8   1.70   1.57   86.2   14.8   32.0    1.6   1.57   1.13    0.00    0.87
 1985 248    84    82   79.7   33.6   46.1   1.70   1.54   87.8   14.6   31.5    1.5   1.54   1.13    0.00    0.91
 1985 249    85    83   80.8   35.7   45.1   1.70   1.51   89.0   14.3   30.8    1.5   1.51   1.11    0.00    0.96
 1985 250    86    84   82.1   37.8   44.3   1.70   1.48   90.5   14.0   30.3    1.5   1.48   1.11    0.00    1.00
 1985 251    87    85   83.1   39.9   43.2   1.70   1.45   91.5   13.7   29.6    1.4   1.45   1.09    0.00    1.04
 1985 252    88    86   84.3   42.0   42.3   1.70   1.41   92.8   13.4   28.9    1.4   1.41   1.09    0.00    1.09
 1985 253    89    87   85.6   44.1   41.5   1.70   1.39   94.1   13.1   28.3    1.4   1.39   1.08    0.00    1.13
 1985 254    90    88   86.5   46.2   40.3   1.70   1.35   95.1   12.7   27.5    1.3   1.35   1.08    0.00    1.18
 1985 255    91    89   87.3   48.3   39.0   1.70   1.30   96.1   12.4   26.7    1.3   1.30   1.07    0.00    1.22
 1985 256    92    90   88.2   50.4   37.8   1.70   1.26   97.1   12.0   25.8    1.3   1.26   1.06    0.00    1.26
 1985 257    93    91   89.0   52.5   36.5   1.70   1.22   98.1   11.5   24.9    1.2   1.22   1.05    0.00    1.31
 1985 258    94    92   89.7   54.6   35.2   1.70   1.17   99.0   11.1   24.0    1.2   1.17   1.05    0.00    1.36
 1985 259    95    93   90.5   56.6   33.8   1.70   1.13   99.8   10.7   23.1    1.1   1.13   1.04    0.00    1.40
 1985 260    96    94   91.2   58.6   32.6   1.69   1.09  100.7   10.3   22.3    1.1   1.09   1.04    0.00    1.45
 1985 261    97    95   92.0   60.5   31.5   1.69   1.05  101.6   10.0   21.5    1.1   1.05   1.04    0.00    1.50
 1985 262    98    96   92.7   62.4   30.4   1.68   1.01  102.4    9.6   20.8    1.0   1.01   1.03    0.00    1.54
 1985 263    99    97   93.4   64.2   29.2   1.68   0.98  103.2    9.3   20.0    1.0   0.98   1.04    0.00    1.59
 1985 264   100    98   94.1   65.9   28.2   1.67   0.94  104.0    8.9   19.3    0.9   0.94   1.04    0.00    1.64
 1985 265   101    99   94.8   67.6   27.2   1.66   0.91  104.8    8.6   18.6    0.9   0.91   1.05    0.00    1.69
 1985 266   102   100   95.6   69.3   26.3   1.65   0.88  105.5    8.3   18.0    0.9   0.88   1.05    0.00    1.74
 1985 267   103   101   96.2   70.9   25.4   1.64   0.85  106.3    8.0   17.3    0.8   0.85   1.05    0.00    1.79
 1985 268   104   102   96.9   72.4   24.5   1.63   0.82  107.0    7.8   16.8    0.8   0.82   1.06    0.00    1.83
 1985 269   105   103   97.6   73.9   23.7   1.62   0.79  107.8    7.5   16.2    0.8   0.79   1.06    0.00    1.88
 1985 270   106   104   98.2   75.3   22.9   1.60   0.76  108.4    7.2   15.6    0.8   0.76   1.06    0.00    1.93
 1985 271   107   105   98.8   76.7   22.1   1.59   0.74  109.0    7.0   15.1    0.7   0.74   1.06    0.00    1.98
 1985 272   108   106   99.3   78.0   21.3   1.58   0.71  109.6    6.7   14.6    0.7   0.71   1.07    0.00    2.03
 1985 273   109   107   99.8   79.3   20.5   1.57   0.69  110.1    6.5   14.0    0.7   0.69   1.07    0.00    2.08
 1985 274   110   108  100.3   80.5   19.8   1.55   0.67  110.7    6.3   13.5    0.7   0.67   1.08    0.00    2.12
 1985 275   111   109  100.3   80.5   19.8   1.55   0.67  110.7    6.3   13.5    0.7   0.67   1.08    0.00    2.12
 1985 276   112   110  100.3   80.5   19.8   1.55   0.67  110.7    6.3   13.5    0.7   0.67   1.08    0.00    2.12
 1985 277   113   111  100.3   80.5   19.8   1.55   0.67  110.7    6.3   13.5    0.7   0.67   1.08    0.00    2.12

*DSSAT Cropping System Model Ver. 4.7.5.008 -release  JAN 07, 2021 20:33:24

*RUN   6        : ERiMA DCC1                MZCER047 ETMZmelk    1
 MODEL          : MZCER047 - Maize
 EXPERIMENT     : ETMZmelk SN MELKSSAL
 DATA PATH      : C:\IRI\Python_Dash\ET_DSS_hist\TEST\
 TREATMENT  1   : ERiMA DCC1                MZCER047
  
@YEAR DOY   DAS   DAP   CNAD   GNAD   VNAD   GN%D   VN%D   NUPC   LNAD   SNAD   LN%D   SN%D   RN%D   SNN0C   SNN1C
 1986 166     2     0    0.0    0.0    0.0   0.00   0.00    0.0    0.0    0.0    0.0   0.00   0.00    0.00    0.00
 1986 167     3     1    0.0    0.0    0.0   0.00   0.00    0.0    0.0    0.0    0.0   0.00   0.00    0.00    0.00
 1986 168     4     2    0.0    0.0    0.0   0.00   0.00    0.0    0.0    0.0    0.0   0.00   0.00    0.00    0.00
 1986 169     5     3    0.0    0.0    0.0   0.00   0.00    0.0    0.0    0.0    0.0   0.00   0.00    0.00    0.00
 1986 170     6     4    0.0    0.0    0.0   0.00   0.00    0.0    0.0    0.0    0.0   0.00   0.00    0.00    0.00
 1986 171     7     5    0.0    0.0    0.0   0.00   0.00    0.0    0.0    0.0    0.0   0.00   0.00    0.00    0.00
 1986 172     8     6    1.1    0.0    1.1   0.00   4.40    0.0    0.6    0.6    4.4   4.40   2.20    0.00    0.00
 1986 173     9     7    1.1    0.0    1.1   0.00   4.40    0.0    0.6    0.6    4.4   4.40   2.18    0.00    0.00
 1986 174    10     8    1.1    0.0    1.1   0.00   4.40    0.0    0.6    0.6    4.4   4.40   2.11    0.00    0.00
 1986 175    11     9    1.1    0.0    1.1   0.00   4.40    0.0    0.6    0.6    4.4   4.40   2.02    0.00    0.00
 1986 176    12    10    1.1    0.0    1.1   0.00   4.40    0.0    0.6    0.6    4.4   4.40   1.88    0.00    0.00
 1986 177    13    11    1.1    0.0    1.1   0.00   4.40    0.0    0.6    0.6    4.4   4.40   1.78    0.00    0.00
 1986 178    14    12    1.1    0.0    1.1   0.00   4.40    0.0    0.6    0.6    4.4   4.40   1.54    0.00    0.00
 1986 179    15    13    1.1    0.0    1.1   0.00   3.62    0.0    0.7    0.5    3.6   3.62   1.49    0.00    0.00
 1986 180    16    14    1.2    0.0    1.2   0.00   3.15    0.0    0.8    0.4    3.2   3.15   1.17    0.00    0.00
 1986 181    17    15    1.5    0.0    1.5   0.00   3.21    0.3    1.1    0.4    3.2   3.21   1.19    0.00    0.00
 1986 182    18    16    1.8    0.0    1.8   0.00   3.07    0.7    1.4    0.4    3.1   3.07   1.31    0.00    0.00
 1986 183    19    17    2.9    0.0    2.9   0.00   4.07    1.8    2.3    0.5    4.1   4.07   1.40    0.00    0.01
 1986 184    20    18    3.5    0.0    3.5   0.00   4.04    2.6    3.0    0.5    4.0   4.04   1.33    0.00    0.01
 1986 185    21    19    4.1    0.0    4.1   0.00   3.91    3.3    3.6    0.5    3.9   3.91   1.45    0.00    0.01
 1986 186    22    20    4.8    0.0    4.8   0.00   3.79    4.0    4.3    0.5    3.8   3.79   1.32    0.00    0.01
 1986 187    23    21    5.6    0.0    5.6   0.00   3.72    5.1    5.1    0.5    3.7   3.72   1.44    0.00    0.02
 1986 188    24    22    6.4    0.0    6.4   0.00   3.64    6.1    5.9    0.5    3.6   3.64   1.43    0.00    0.02
 1986 189    25    23    7.3    0.0    7.3   0.00   3.58    7.2    6.8    0.6    3.6   3.58   1.41    0.00    0.03
 1986 190    26    24    8.5    0.0    8.5   0.00   3.53    8.6    7.8    0.6    3.5   3.53   1.39    0.00    0.03
 1986 191    27    25    9.8    0.0    9.8   0.00   3.47   10.1    9.0    0.8    3.5   3.47   1.39    0.00    0.04
 1986 192    28    26   11.3    0.0   11.3   0.00   3.42   11.8   10.4    1.0    3.4   3.42   1.34    0.00    0.05
 1986 193    29    27   12.9    0.0   12.9   0.00   3.35   13.7   11.7    1.2    3.3   3.35   1.34    0.00    0.06
 1986 194    30    28   14.7    0.0   14.7   0.00   3.29   15.6   13.1    1.5    3.3   3.29   1.24    0.00    0.07
 1986 195    31    29   16.4    0.0   16.4   0.00   3.22   17.6   14.5    1.9    3.2   3.22   1.26    0.00    0.08
 1986 196    32    30   18.5    0.0   18.5   0.00   3.18   20.0   16.0    2.4    3.2   3.18   1.27    0.00    0.09
 1986 197    33    31   20.9    0.0   20.9   0.00   3.14   22.6   17.9    3.0    3.1   3.14   1.24    0.00    0.11
 1986 198    34    32   23.7    0.0   23.7   0.00   3.10   25.7   19.9    3.8    3.1   3.10   1.23    0.00    0.12
 1986 199    35    33   26.0    0.0   26.0   0.00   3.03   28.4   21.5    4.5    3.0   3.03   1.25    0.00    0.14
 1986 200    36    34   28.7    0.0   28.7   0.00   2.99   31.4   23.3    5.4    3.0   2.99   1.24    0.00    0.16
 1986 201    37    35   32.7    0.0   32.7   0.00   2.97   35.1   24.5    8.2    3.0   2.97   1.11    0.00    0.18
 1986 202    38    36   35.9    0.0   35.9   0.00   2.90   38.4   25.1   10.8    2.9   2.90   1.11    0.00    0.20
 1986 203    39    37   37.9    0.0   37.9   0.00   2.82   40.4   25.3   12.6    2.8   2.82   1.10    0.00    0.21
 1986 204    40    38   40.4    0.0   40.4   0.00   2.78   43.0   25.8   14.7    2.8   2.78   1.10    0.00    0.23
 1986 205    41    39   41.8    0.0   41.8   0.00   2.71   44.4   25.8   16.1    2.7   2.71   1.09    0.00    0.25
 1986 206    42    40   44.5    0.0   44.5   0.00   2.70   47.2   26.4   18.2    2.7   2.70   1.10    0.00    0.27
 1986 207    43    41   45.7    0.0   45.7   0.00   2.64   48.4   26.3   19.4    2.6   2.64   1.09    0.00    0.29
 1986 208    44    42   49.8    0.0   49.8   0.00   2.66   52.7   27.5   22.3    2.7   2.66   1.11    0.00    0.31
 1986 209    45    43   53.2    0.0   53.2   0.00   2.63   56.2   28.2   24.9    2.6   2.63   1.12    0.00    0.33
 1986 210    46    44   54.4    0.0   54.4   0.00   2.56   57.5   28.1   26.3    2.6   2.56   1.10    0.00    0.35
 1986 211    47    45   56.7    0.0   56.7   0.00   2.53   59.8   28.5   28.2    2.5   2.53   1.10    0.00    0.37
 1986 212    48    46   60.9    0.0   60.9   0.00   2.55   64.2   29.9   30.9    2.6   2.55   1.12    0.00    0.39
 1986 213    49    47   64.1    0.0   64.1   0.00   2.54   67.6   31.0   33.0    2.5   2.54   1.13    0.00    0.41
 1986 214    50    48   64.4    0.0   64.4   0.00   2.44   67.9   30.7   33.7    2.4   2.44   1.11    0.00    0.44
 1986 215    51    49   66.7    0.0   66.7   0.00   2.43   70.4   31.6   35.1    2.4   2.43   1.11    0.00    0.46
 1986 216    52    50   67.7    0.0   67.7   0.00   2.38   71.4   31.8   35.9    2.4   2.38   1.11    0.00    0.48
 1986 217    53    51   70.1    0.0   70.1   0.00   2.39   74.0   33.0   37.1    2.4   2.39   1.12    0.00    0.50
 1986 218    54    52   70.5    0.0   70.5   0.00   2.36   74.4   32.2   38.3    2.4   2.36   1.10    0.00    0.53
 1986 219    55    53   70.5    0.0   70.5   0.00   2.33   74.4   31.3   39.1    2.3   2.33   1.09    0.00    0.53
 1986 220    56    54   70.5    0.0   70.5   0.00   2.31   74.4   30.7   39.8    2.3   2.31   1.08    0.00    0.53
 1986 221    57    55   70.5    0.0   70.5   0.00   2.30   74.4   30.0   40.5    2.3   2.30   1.07    0.00    0.53
 1986 222    58    56   70.5    0.0   70.5   0.00   2.28   74.4   29.3   41.1    2.3   2.28   1.05    0.00    0.53
 1986 223    59    57   70.5    0.0   70.5   0.00   2.27   74.4   28.7   41.8    2.3   2.27   1.04    0.00    0.53
 1986 224    60    58   70.5    0.0   70.5   0.00   2.27   74.4   28.1   42.4    2.3   2.27   1.03    0.00    0.53
 1986 225    61    59   70.5    0.0   70.5   0.00   2.27   74.4   27.6   42.9    2.3   2.27   1.03    0.00    0.53
 1986 226    62    60   70.5    0.0   70.5   0.00   2.26   74.4   27.0   43.5    2.3   2.26   1.01    0.00    0.53
 1986 227    63    61   70.5    0.0   70.5   0.00   2.26   74.4   26.4   44.1    2.3   2.26   1.01    0.00    0.53
 1986 228    64    62   70.5    0.0   70.5   0.00   2.26   74.4   25.8   44.7    2.3   2.26   0.99    0.00    0.53
 1986 229    65    63   70.5    0.0   70.5   0.00   2.26   74.4   25.1   45.3    2.3   2.26   0.98    0.00    0.53
 1986 230    66    64   70.5    0.0   70.5   0.00   2.26   74.4   24.5   46.0    2.3   2.26   0.97    0.00    0.53
 1986 231    67    65   70.5    0.0   70.5   0.00   2.26   74.4   23.8   46.7    2.3   2.26   0.96    0.00    0.53
 1986 232    68    66   70.5    2.0   68.5   1.70   2.20   74.4   23.2   45.4    2.2   2.20   0.92    0.00    0.53
 1986 233    69    67   70.5    3.9   66.6   1.70   2.14   74.4   22.5   44.1    2.1   2.14   0.89    0.00    0.53
 1986 234    70    68   70.5    5.9   64.6   1.70   2.08   74.4   21.8   42.8    2.1   2.08   0.87    0.00    0.53
 1986 235    71    69   70.5    7.8   62.7   1.70   2.01   74.4   21.2   41.5    2.0   2.01   0.83    0.00    0.53
 1986 236    72    70   70.5    9.8   60.7   1.70   1.95   74.4   20.5   40.2    2.0   1.95   0.81    0.00    0.53
 1986 237    73    71   70.5   11.7   58.8   1.70   1.89   74.4   19.9   38.9    1.9   1.89   0.80    0.00    0.53
 1986 238    74    72   70.5   13.7   56.8   1.70   1.83   74.4   19.2   37.6    1.8   1.83   0.79    0.00    0.53
 1986 239    75    73   69.6   15.6   53.9   1.70   1.73   76.2   18.2   35.7    1.7   1.73   1.16    0.00    0.55
 1986 240    76    74   70.5   17.6   52.9   1.70   1.70   77.3   17.9   35.0    1.7   1.70   1.15    0.00    0.59
 1986 241    77    75   70.9   19.5   51.3   1.70   1.65   77.5   17.3   34.0    1.6   1.65   1.10    0.00    0.63
 1986 242    78    76   72.0   21.5   50.6   1.70   1.62   78.8   17.1   33.5    1.6   1.62   1.10    0.00    0.67
 1986 243    79    77   73.6   23.4   50.2   1.70   1.61   80.8   17.0   33.2    1.6   1.61   1.12    0.00    0.70
 1986 244    80    78   74.9   25.4   49.4   1.70   1.59   82.3   16.7   32.7    1.6   1.59   1.12    0.00    0.74
 1986 245    81    79   76.2   27.4   48.8   1.71   1.57   83.9   16.5   32.3    1.6   1.57   1.13    0.00    0.78
 1986 246    82    80   77.5   29.5   48.1   1.71   1.55   85.5   16.3   31.8    1.5   1.55   1.13    0.00    0.83
 1986 247    83    81   79.1   31.5   47.6   1.71   1.53   87.5   16.1   31.5    1.5   1.53   1.14    0.00    0.87
 1986 248    84    82   80.2   33.5   46.8   1.72   1.50   88.8   15.8   31.0    1.5   1.50   1.13    0.00    0.91
 1986 249    85    83   81.6   35.5   46.1   1.72   1.48   90.4   15.6   30.5    1.5   1.48   1.12    0.00    0.96
 1986 250    86    84   83.0   37.5   45.5   1.72   1.46   92.1   15.4   30.1    1.5   1.46   1.13    0.00    1.01
 1986 251    87    85   83.9   39.5   44.4   1.72   1.43   93.1   15.0   29.4    1.4   1.43   1.11    0.00    1.05
 1986 252    88    86   85.2   41.4   43.7   1.72   1.41   94.5   14.8   29.0    1.4   1.41   1.10    0.00    1.10
 1986 253    89    87   86.2   43.4   42.8   1.72   1.38   95.5   14.5   28.3    1.4   1.38   1.09    0.00    1.15
 1986 254    90    88   87.6   45.3   42.3   1.72   1.36   97.2   14.3   28.0    1.4   1.36   1.10    0.00    1.20
 1986 255    91    89   88.9   47.3   41.6   1.72   1.34   98.6   14.1   27.6    1.3   1.34   1.10    0.00    1.25
 1986 256    92    90   90.4   49.2   41.2   1.72   1.32  100.4   13.9   27.2    1.3   1.32   1.10    0.00    1.30
 1986 257    93    91   91.7   51.2   40.5   1.71   1.30  101.9   13.7   26.8    1.3   1.30   1.10    0.00    1.35
 1986 258    94    92   92.8   53.1   39.6   1.71   1.27  102.9   13.4   26.2    1.3   1.27   1.09    0.00    1.40
 1986 259    95    93   94.3   55.1   39.2   1.71   1.26  104.7   13.2   25.9    1.3   1.26   1.09    0.00    1.45
 1986 260    96    94   95.6   57.0   38.5   1.71   1.24  106.0   13.0   25.5    1.2   1.24   1.09    0.00    1.50
 1986 261    97    95   97.2   59.0   38.2   1.71   1.23  108.0   12.9   25.3    1.2   1.23   1.10    0.00    1.55
 1986 262    98    96   98.4   61.0   37.5   1.71   1.20  109.3   12.7   24.8    1.2   1.20   1.10    0.00    1.61
 1986 263    99    97   99.8   62.9   36.9   1.71   1.19  110.8   12.5   24.4    1.2   1.19   1.09    0.00    1.66
 1986 264   100    98  101.1   64.9   36.2   1.71   1.16  112.2   12.3   24.0    1.2   1.16   1.09    0.00    1.71
 1986 265   101    99  102.6   66.8   35.8   1.71   1.15  113.8   12.1   23.7    1.1   1.15   1.09    0.00    1.77
 1986 266   102   100  104.1   68.8   35.3   1.71   1.13  115.5   11.9   23.4    1.1   1.13   1.09    0.00    1.82
 1986 267   103   101  105.5   70.7   34.8   1.71   1.12  117.1   11.8   23.0    1.1   1.12   1.09    0.00    1.88
 1986 268   104   102  106.9   72.7   34.2   1.71   1.10  118.6   11.6   22.6    1.1   1.10   1.09    0.00    1.93
 1986 269   105   103  108.2   74.6   33.6   1.71   1.08  119.9   11.3   22.2    1.1   1.08   1.08    0.00    1.99
 1986 270   106   104  109.6   76.6   33.1   1.71   1.06  121.5   11.2   21.9    1.1   1.06   1.08    0.00    2.04
 1986 271   107   105  110.9   78.5   32.4   1.71   1.04  122.7   10.9   21.4    1.0   1.04   1.07    0.00    2.10
 1986 272   108   106  111.9   80.5   31.4   1.71   1.01  123.7   10.6   20.8    1.0   1.01   1.07    0.00    2.16
 1986 273   109   107  111.9   80.5   31.4   1.71   1.01  123.7   10.6   20.8    1.0   1.01   1.07    0.00    2.16
 1986 274   110   108  111.9   80.5   31.4   1.71   1.01  123.7   10.6   20.8    1.0   1.01   1.07    0.00    2.16
 1986 275   111   109  111.9   80.5   31.4   1.71   1.01  123.7   10.6   20.8    1.0   1.01   1.07    0.00    2.16
 1986 276   112   110  111.9   80.5   31.4   1.71   1.01  123.7   10.6   20.8    1.0   1.01   1.07    0.00    2.16

*DSSAT Cropping System Model Ver. 4.7.5.008 -release  JAN 07, 2021 20:33:24

*RUN   7        : ERiMA DCC1                MZCER047 ETMZmelk    1
 MODEL          : MZCER047 - Maize
 EXPERIMENT     : ETMZmelk SN MELKSSAL
 DATA PATH      : C:\IRI\Python_Dash\ET_DSS_hist\TEST\
 TREATMENT  1   : ERiMA DCC1                MZCER047
  
@YEAR DOY   DAS   DAP   CNAD   GNAD   VNAD   GN%D   VN%D   NUPC   LNAD   SNAD   LN%D   SN%D   RN%D   SNN0C   SNN1C
 1987 166     2     0    0.0    0.0    0.0   0.00   0.00    0.0    0.0    0.0    0.0   0.00   0.00    0.00    0.00
 1987 167     3     1    0.0    0.0    0.0   0.00   0.00    0.0    0.0    0.0    0.0   0.00   0.00    0.00    0.00
 1987 168     4     2    0.0    0.0    0.0   0.00   0.00    0.0    0.0    0.0    0.0   0.00   0.00    0.00    0.00
 1987 169     5     3    0.0    0.0    0.0   0.00   0.00    0.0    0.0    0.0    0.0   0.00   0.00    0.00    0.00
 1987 170     6     4    0.0    0.0    0.0   0.00   0.00    0.0    0.0    0.0    0.0   0.00   0.00    0.00    0.00
 1987 171     7     5    0.0    0.0    0.0   0.00   0.00    0.0    0.0    0.0    0.0   0.00   0.00    0.00    0.00
 1987 172     8     6    1.1    0.0    1.1   0.00   4.40    0.0    0.6    0.6    4.4   4.40   2.20    0.00    0.00
 1987 173     9     7    1.1    0.0    1.1   0.00   4.40    0.0    0.6    0.6    4.4   4.40   2.16    0.00    0.00
 1987 174    10     8    1.1    0.0    1.1   0.00   4.40    0.0    0.6    0.6    4.4   4.40   2.06    0.00    0.00
 1987 175    11     9    1.1    0.0    1.1   0.00   4.40    0.0    0.6    0.6    4.4   4.40   1.93    0.00    0.00
 1987 176    12    10    1.1    0.0    1.1   0.00   4.40    0.0    0.6    0.6    4.4   4.40   1.77    0.00    0.00
 1987 177    13    11    1.1    0.0    1.1   0.00   4.40    0.0    0.6    0.6    4.4   4.40   1.58    0.00    0.00
 1987 178    14    12    1.1    0.0    1.1   0.00   3.93    0.0    0.6    0.5    3.9   3.93   1.41    0.00    0.00
 1987 179    15    13    1.1    0.0    1.1   0.00   3.13    0.0    0.7    0.4    3.1   3.13   1.33    0.00    0.00
 1987 180    16    14    1.4    0.0    1.4   0.00   3.31    0.3    1.0    0.4    3.3   3.31   1.35    0.00    0.00
 1987 181    17    15    2.0    0.0    2.0   0.00   4.10    0.9    1.4    0.5    4.1   4.10   1.33    0.00    0.00
 1987 182    18    16    2.3    0.0    2.3   0.00   4.28    1.3    1.7    0.6    4.3   4.28   1.52    0.00    0.00
 1987 183    19    17    2.5    0.0    2.5   0.00   4.19    1.6    1.9    0.5    4.2   4.19   1.53    0.00    0.01
 1987 184    20    18    2.7    0.0    2.7   0.00   4.10    1.8    2.2    0.5    4.1   4.10   1.44    0.00    0.01
 1987 185    21    19    3.0    0.0    3.0   0.00   4.03    2.1    2.5    0.5    4.0   4.03   1.39    0.00    0.01
 1987 186    22    20    3.2    0.0    3.2   0.00   3.89    2.4    2.7    0.5    3.9   3.89   1.43    0.00    0.01
 1987 187    23    21    3.7    0.0    3.7   0.00   3.91    2.8    3.1    0.6    3.9   3.91   1.27    0.00    0.02
[...]
 2014 276   112   110   97.5   31.2   66.2   1.48   1.19  105.8   26.9   39.3    1.2   1.19   0.61    0.00    1.94
 2014 277   113   111   97.8   32.5   65.3   1.48   1.18  106.4   26.5   38.7    1.2   1.18   0.61    0.00    1.98
 2014 278   114   112   98.0   33.8   64.2   1.48   1.16  106.8   26.1   38.1    1.2   1.16   0.62    0.00    2.02
 2014 279   115   113   98.2   35.1   63.1   1.48   1.14  107.2   25.7   37.5    1.1   1.14   0.62    0.00    2.06
 2014 280   116   114   98.6   36.4   62.2   1.48   1.12  107.7   25.3   36.9    1.1   1.12   0.62    0.00    2.10
 2014 281   117   115   98.9   37.6   61.2   1.48   1.10  108.2   24.9   36.3    1.1   1.10   0.62    0.00    2.14
 2014 282   118   116   99.1   38.9   60.2   1.47   1.08  108.7   24.5   35.7    1.1   1.08   0.63    0.00    2.18
 2014 283   119   117   99.3   40.2   59.1   1.47   1.06  109.0   24.0   35.1    1.1   1.06   0.63    0.00    2.23
 2014 284   120   118   99.6   41.4   58.2   1.47   1.05  109.5   23.6   34.5    1.0   1.05   0.64    0.00    2.27
 2014 285   121   119   99.9   42.6   57.2   1.47   1.03  109.9   23.3   34.0    1.0   1.03   0.65    0.00    2.32
 2014 286   122   120  100.1   43.9   56.3   1.47   1.01  110.4   22.9   33.4    1.0   1.01   0.66    0.00    2.36
 2014 287   123   121  100.4   45.1   55.3   1.47   1.00  110.9   22.5   32.8    1.0   1.00   0.67    0.00    2.41
 2014 288   124   122  100.7   46.3   54.4   1.46   0.98  111.4   22.1   32.3    1.0   0.98   0.67    0.00    2.46
 2014 289   125   123  101.0   47.6   53.4   1.46   0.96  111.9   21.7   31.7    1.0   0.96   0.68    0.00    2.51
 2014 290   126   124  101.3   48.8   52.5   1.46   0.95  112.4   21.3   31.2    0.9   0.95   0.68    0.00    2.56
 2014 291   127   125  101.6   50.0   51.6   1.46   0.93  112.9   21.0   30.6    0.9   0.93   0.68    0.00    2.61
 2014 292   128   126  101.9   51.2   50.7   1.46   0.91  113.4   20.6   30.1    0.9   0.91   0.69    0.00    2.66
 2014 293   129   127  102.2   52.4   49.8   1.45   0.90  114.0   20.3   29.6    0.9   0.90   0.69    0.00    2.71
 2014 294   130   128  102.5   53.6   48.9   1.45   0.88  114.4   19.9   29.0    0.9   0.88   0.70    0.00    2.76
 2014 295   131   129  102.8   54.7   48.0   1.45   0.87  115.0   19.5   28.5    0.9   0.87   0.70    0.00    2.81
 2014 296   132   130  103.1   55.9   47.2   1.44   0.85  115.5   19.2   28.0    0.8   0.85   0.70    0.00    2.87
 2014 297   133   131  103.4   57.1   46.3   1.44   0.83  116.0   18.8   27.5    0.8   0.83   0.70    0.00    2.92
 2014 298   134   132  103.7   58.2   45.5   1.44   0.82  116.6   18.5   27.0    0.8   0.82   0.71    0.00    2.98
 2014 299   135   133  104.0   59.4   44.6   1.44   0.80  117.1   18.1   26.5    0.8   0.80   0.71    0.00    3.03
 2014 300   136   134  104.2   60.5   43.7   1.43   0.79  117.5   17.8   26.0    0.8   0.79   0.72    0.00    3.09
 2014 301   137   135  104.2   60.5   43.7   1.43   0.79  117.5   17.8   26.0    0.8   0.79   0.72    0.00    3.09
 2014 302   138   136  104.2   60.5   43.7   1.43   0.79  117.5   17.8   26.0    0.8   0.79   0.72    0.00    3.09
 2014 303   139   137  104.2   60.5   43.7   1.43   0.79  117.5   17.8   26.0    0.8   0.79   0.72    0.00    3.09
 2014 304   140   138  104.2   60.5   43.7   1.43   0.79  117.5   17.8   26.0    0.8   0.79   0.72    0.00    3.09
 2014 305   141   139  104.2   60.5   43.7   1.43   0.79  117.5   17.8   26.0    0.8   0.79   0.72    0.00    3.09

*DSSAT Cropping System Model Ver. 4.7.5.008 -release  JAN 07, 2021 20:33:40

*RUN  70        : ERiMA DCC1                MZCER047 ETMZbako    1
 MODEL          : MZCER047 - Maize
 EXPERIMENT     : ETMZbako SN MELKSSAL
 DATA PATH      : C:\IRI\Python_Dash\ET_DSS_hist\TEST\
 TREATMENT  1   : ERiMA DCC1                MZCER047
  
@YEAR DOY   DAS   DAP   CNAD   GNAD   VNAD   GN%D   VN%D   NUPC   LNAD   SNAD   LN%D   SN%D   RN%D   SNN0C   SNN1C
 2015 166     2     0    0.0    0.0    0.0   0.00   0.00    0.0    0.0    0.0    0.0   0.00   0.00    0.00    0.00
 2015 167     3     1    0.0    0.0    0.0   0.00   0.00    0.0    0.0    0.0    0.0   0.00   0.00    0.00    0.00
 2015 168     4     2    0.0    0.0    0.0   0.00   0.00    0.0    0.0    0.0    0.0   0.00   0.00    0.00    0.00
 2015 169     5     3    0.0    0.0    0.0   0.00   0.00    0.0    0.0    0.0    0.0   0.00   0.00    0.00    0.00
 2015 170     6     4    0.0    0.0    0.0   0.00   0.00    0.0    0.0    0.0    0.0   0.00   0.00    0.00    0.00
 2015 171     7     5    1.1    0.0    1.1   0.00   4.40    0.0    0.6    0.6    4.4   4.40   2.20    0.00    0.00
 2015 172     8     6    1.1    0.0    1.1   0.00   4.40    0.0    0.6    0.6    4.4   4.40   2.15    0.00    0.00
 2015 173     9     7    1.1    0.0    1.1   0.00   4.40    0.0    0.6    0.6    4.4   4.40   2.06    0.00    0.00
 2015 174    10     8    1.1    0.0    1.1   0.00   4.40    0.0    0.6    0.6    4.4   4.40   1.90    0.00    0.00
 2015 175    11     9    1.1    0.0    1.1   0.00   4.40    0.0    0.6    0.6    4.4   4.40   1.78    0.00    0.00
 2015 176    12    10    1.1    0.0    1.1   0.00   3.91    0.0    0.6    0.5    3.9   3.91   1.70    0.00    0.00
 2015 177    13    11    1.2    0.0    1.2   0.00   3.36    0.0    0.8    0.4    3.4   3.36   1.20    0.00    0.00
 2015 178    14    12    1.6    0.0    1.6   0.00   3.33    0.4    1.1    0.4    3.3   3.33   1.23    0.00    0.00
 2015 179    15    13    2.0    0.0    2.0   0.00   3.42    0.8    1.5    0.4    3.4   3.42   1.22    0.00    0.00
 2015 180    16    14    2.4    0.0    2.4   0.00   3.40    1.3    1.9    0.4    3.4   3.40   1.32    0.00    0.01
 2015 181    17    15    2.8    0.0    2.8   0.00   3.33    1.8    2.4    0.4    3.3   3.33   1.35    0.00    0.01
 2015 182    18    16    3.4    0.0    3.4   0.00   3.35    2.4    3.0    0.4    3.3   3.35   1.20    0.00    0.01
 2015 183    19    17    4.1    0.0    4.1   0.00   3.40    3.1    3.7    0.4    3.4   3.40   1.31    0.00    0.01
 2015 184    20    18    4.8    0.0    4.8   0.00   3.44    4.1    4.4    0.4    3.4   3.44   1.57    0.00    0.01
 2015 185    21    19    5.5    0.0    5.5   0.00   3.35    4.9    5.1    0.4    3.3   3.35   1.40    0.00    0.02
 2015 186    22    20    6.4    0.0    6.4   0.00   3.31    5.8    6.0    0.4    3.3   3.31   1.29    0.00    0.02
 2015 187    23    21    7.4    0.0    7.4   0.00   3.52    7.1    7.0    0.5    3.5   3.52   1.43    0.00    0.02
 2015 188    24    22    8.2    0.0    8.2   0.00   3.39    7.8    7.8    0.4    3.4   3.39   1.20    0.00    0.03
 2015 189    25    23    9.3    0.0    9.3   0.00   3.36    9.2    8.9    0.4    3.4   3.36   1.34    0.00    0.03
 2015 190    26    24   12.7    0.0   12.7   0.00   4.02   12.7   12.2    0.5    4.0   4.02   1.26    0.00    0.04
 2015 191    27    25   13.9    0.0   13.9   0.00   3.92   13.9   13.4    0.5    3.9   3.92   1.21    0.00    0.05
 2015 192    28    26   14.9    0.0   14.9   0.00   3.79   15.2   14.4    0.5    3.8   3.79   1.31    0.00    0.05
 2015 193    29    27   16.8    0.0   16.8   0.00   3.74   17.0   16.3    0.5    3.7   3.74   1.21    0.00    0.06
 2015 194    30    28   18.6    0.0   18.6   0.00   3.68   18.9   18.1    0.5    3.7   3.68   1.16    0.00    0.07
 2015 195    31    29   20.2    0.0   20.2   0.00   3.62   20.7   19.6    0.6    3.6   3.62   1.22    0.00    0.08
 2015 196    32    30   22.2    0.0   22.2   0.00   3.59   22.8   21.6    0.6    3.6   3.59   1.19    0.00    0.09
 2015 197    33    31   23.7    0.0   23.7   0.00   3.53   24.4   23.0    0.7    3.5   3.53   1.19    0.00    0.10
 2015 198    34    32   26.5    0.0   26.5   0.00   3.52   27.4   25.6    0.9    3.5   3.52   1.20    0.00    0.11
 2015 199    35    33   30.3    0.0   30.3   0.00   3.51   31.2   29.1    1.3    3.5   3.51   1.13    0.00    0.12
 2015 200    36    34   32.2    0.0   32.2   0.00   3.29   33.2   30.5    1.6    3.3   3.29   1.14    0.00    0.13
 2015 201    37    35   33.4    0.0   33.4   0.00   3.10   34.6   31.5    2.0    3.1   3.10   1.10    0.00    0.14
 2015 202    38    36   34.7    0.0   34.7   0.00   2.90   36.0   32.3    2.4    2.9   2.90   1.04    0.00    0.15
 2015 203    39    37   35.7    0.0   35.7   0.00   2.74   37.1   32.9    2.8    2.7   2.74   0.98    0.00    0.17
 2015 204    40    38   36.7    0.0   36.7   0.00   2.57   38.2   33.4    3.3    2.6   2.57   0.98    0.00    0.18
 2015 205    41    39   37.5    0.0   37.5   0.00   2.44   39.1   33.7    3.8    2.4   2.44   0.93    0.00    0.19
 2015 206    42    40   38.3    0.0   38.3   0.00   2.32   39.9   34.0    4.3    2.3   2.32   0.87    0.00    0.21
 2015 207    43    41   38.8    0.0   38.8   0.00   2.21   40.5   34.0    4.8    2.2   2.21   0.82    0.00    0.22
 2015 208    44    42   39.4    0.0   39.4   0.00   2.11   41.1   34.0    5.3    2.1   2.11   0.82    0.00    0.24
 2015 209    45    43   39.8    0.0   39.8   0.00   2.02   41.6   34.0    5.9    2.0   2.02   0.79    0.00    0.25
 2015 210    46    44   40.4    0.0   40.4   0.00   1.96   42.3   34.1    6.4    2.0   1.96   0.79    0.00    0.27
 2015 211    47    45   49.7    0.0   49.7   0.00   2.27   52.0   41.2    8.5    2.3   2.27   0.90    0.00    0.28
 2015 212    48    46   58.2    0.0   58.2   0.00   2.50   60.9   47.3   10.8    2.5   2.50   0.98    0.00    0.30
 2015 213    49    47   63.8    0.0   63.8   0.00   2.56   66.8   50.8   13.0    2.6   2.56   1.02    0.00    0.32
 2015 214    50    48   67.6    0.0   67.6   0.00   2.59   70.8   53.4   14.3    2.6   2.59   1.04    0.00    0.34
 2015 215    51    49   70.1    0.0   70.1   0.00   2.53   73.4   54.1   16.1    2.5   2.53   1.05    0.00    0.36
 2015 216    52    50   71.9    0.0   71.9   0.00   2.45   75.1   53.9   17.9    2.4   2.45   1.04    0.00    0.38
 2015 217    53    51   72.9    0.0   72.9   0.00   2.35   76.3   53.3   19.6    2.4   2.35   1.03    0.00    0.40
 2015 218    54    52   73.7    0.0   73.7   0.00   2.28   77.1   52.8   20.9    2.3   2.28   1.02    0.00    0.42
 2015 219    55    53   74.6    0.0   74.6   0.00   2.20   78.1   52.1   22.5    2.2   2.20   1.00    0.00    0.45
 2015 220    56    54   75.3    0.0   75.3   0.00   2.12   78.8   51.4   23.9    2.1   2.12   0.96    0.00    0.47
 2015 221    57    55   76.0    0.0   76.0   0.00   2.06   79.6   50.9   25.1    2.1   2.06   0.93    0.00    0.49
 2015 222    58    56   76.7    0.0   76.7   0.00   2.02   80.3   50.5   26.2    2.0   2.02   0.92    0.00    0.51
 2015 223    59    57   77.2    0.0   77.2   0.00   1.95   80.8   49.8   27.4    2.0   1.95   0.91    0.00    0.54
 2015 224    60    58   77.6    0.0   77.6   0.00   1.89   81.3   49.2   28.4    1.9   1.89   0.87    0.00    0.56
 2015 225    61    59   77.9    0.0   77.9   0.00   1.84   81.7   48.7   29.2    1.8   1.84   0.82    0.00    0.58
 2015 226    62    60   78.4    0.0   78.4   0.00   1.81   82.2   48.4   30.0    1.8   1.81   0.80    0.00    0.60
 2015 227    63    61   78.9    0.0   78.9   0.00   1.78   82.7   48.2   30.7    1.8   1.78   0.80    0.00    0.63
 2015 228    64    62   79.4    0.0   79.4   0.00   1.75   83.2   48.0   31.4    1.8   1.75   0.79    0.00    0.65
 2015 229    65    63   79.8    0.0   79.8   0.00   1.72   83.7   47.8   32.1    1.7   1.72   0.79    0.00    0.67
 2015 230    66    64   80.3    0.0   80.3   0.00   1.71   84.2   47.8   32.5    1.7   1.71   0.75    0.00    0.70
 2015 231    67    65   80.7    0.0   80.7   0.00   1.69   84.7   47.7   33.0    1.7   1.69   0.75    0.00    0.72
 2015 232    68    66   81.1    0.0   81.1   0.00   1.67   85.1   47.6   33.4    1.7   1.67   0.75    0.00    0.74
 2015 233    69    67   81.4    0.0   81.4   0.00   1.65   85.5   47.6   33.9    1.6   1.65   0.75    0.00    0.77
 2015 234    70    68   81.8    0.0   81.8   0.00   1.63   85.9   47.5   34.2    1.6   1.63   0.75    0.00    0.79
 2015 235    71    69   82.1    0.0   82.1   0.00   1.62   86.3   47.6   34.4    1.6   1.62   0.74    0.00    0.82
 2015 236    72    70   82.4    0.0   82.4   0.00   1.61   86.6   47.6   34.8    1.6   1.61   0.75    0.00    0.84
 2015 237    73    71   82.7    0.0   82.7   0.00   1.60   87.0   47.7   35.0    1.6   1.60   0.75    0.00    0.86
 2015 238    74    72   83.1    0.0   83.1   0.00   1.60   87.5   47.2   35.9    1.6   1.60   0.75    0.00    0.89
 2015 239    75    73   83.5    0.0   83.5   0.00   1.59   87.9   46.4   37.2    1.6   1.59   0.75    0.00    0.91
 2015 240    76    74   83.8    0.0   83.8   0.00   1.58   88.3   45.5   38.3    1.6   1.58   0.75    0.00    0.94
 2015 241    77    75   84.2    0.0   84.2   0.00   1.58   88.7   44.9   39.3    1.6   1.58   0.75    0.00    0.96
 2015 242    78    76   84.6    0.0   84.6   0.00   1.58   89.2   44.5   40.1    1.6   1.58   0.75    0.00    0.99
 2015 243    79    77   85.0    0.0   85.0   0.00   1.58   89.6   43.8   41.2    1.6   1.58   0.75    0.00    1.01
 2015 244    80    78   85.3    0.0   85.3   0.00   1.57   90.0   43.0   42.4    1.6   1.57   0.75    0.00    1.04
 2015 245    81    79   85.7    0.0   85.7   0.00   1.57   90.4   42.0   43.7    1.6   1.57   0.74    0.00    1.06
 2015 246    82    80   86.1    0.0   86.1   0.00   1.57   90.8   41.3   44.8    1.6   1.57   0.74    0.00    1.09
 2015 247    83    81   86.5    0.0   86.5   0.00   1.57   91.3   40.5   45.9    1.6   1.57   0.74    0.00    1.11
 2015 248    84    82   86.8    0.0   86.8   0.00   1.57   91.7   39.9   47.0    1.6   1.57   0.75    0.00    1.14
 2015 249    85    83   87.3    0.0   87.3   0.00   1.58   92.2   39.3   48.0    1.6   1.58   0.75    0.00    1.16
 2015 250    86    84   87.7    0.0   87.7   0.00   1.58   92.8   38.5   49.3    1.6   1.58   0.75    0.00    1.19
 2015 251    87    85   88.2    0.0   88.2   0.00   1.59   93.2   37.7   50.4    1.6   1.59   0.75    0.00    1.22
 2015 252    88    86   88.5    1.2   87.3   1.48   1.58   93.7   37.4   49.9    1.6   1.58   0.73    0.00    1.24
 2015 253    89    87   88.9    2.5   86.5   1.47   1.56   94.2   37.0   49.5    1.6   1.56   0.72    0.00    1.27
 2015 254    90    88   89.3    3.7   85.6   1.47   1.54   94.7   36.6   49.0    1.5   1.54   0.70    0.00    1.30
 2015 255    91    89   89.7    4.9   84.7   1.47   1.53   95.1   36.3   48.5    1.5   1.53   0.70    0.00    1.32
 2015 256    92    90   90.0    6.2   83.8   1.47   1.51   95.5   35.9   47.9    1.5   1.51   0.68    0.00    1.35
 2015 257    93    91   90.3    7.4   82.9   1.47   1.50   95.9   35.5   47.4    1.5   1.50   0.67    0.00    1.38
 2015 258    94    92   90.6    8.6   81.9   1.48   1.48   96.3   35.1   46.9    1.5   1.48   0.66    0.00    1.41
 2015 259    95    93   90.9    9.9   81.1   1.48   1.46   96.9   34.7   46.4    1.5   1.46   0.67    0.00    1.44
 2015 260    96    94   91.3   11.1   80.2   1.48   1.45   97.4   34.3   45.9    1.4   1.45   0.67    0.00    1.47
 2015 261    97    95   91.6   12.4   79.3   1.48   1.43   97.8   33.9   45.3    1.4   1.43   0.65    0.00    1.50
 2015 262    98    96   92.0   13.6   78.4   1.48   1.41   98.3   33.6   44.8    1.4   1.41   0.65    0.00    1.53
 2015 263    99    97   92.3   14.9   77.5   1.48   1.40   98.8   33.2   44.3    1.4   1.40   0.65    0.00    1.56
 2015 264   100    98   92.6   16.1   76.5   1.48   1.38   99.2   32.7   43.8    1.4   1.38   0.65    0.00    1.59
 2015 265   101    99   93.0   17.4   75.6   1.48   1.36   99.7   32.4   43.2    1.4   1.36   0.65    0.00    1.62
 2015 266   102   100   93.3   18.6   74.7   1.48   1.35  100.3   32.0   42.7    1.3   1.35   0.64    0.00    1.66
 2015 267   103   101   93.6   19.9   73.8   1.49   1.33  100.8   31.6   42.2    1.3   1.33   0.63    0.00    1.69
 2015 268   104   102   94.0   21.1   72.9   1.49   1.31  101.3   31.2   41.7    1.3   1.31   0.64    0.00    1.72
 2015 269   105   103   94.3   22.4   71.9   1.49   1.30  101.7   30.8   41.1    1.3   1.30   0.64    0.00    1.76
 2015 270   106   104   94.6   23.6   71.0   1.49   1.28  102.2   30.4   40.6    1.3   1.28   0.65    0.00    1.79
 2015 271   107   105   94.9   24.9   70.1   1.49   1.26  102.7   30.0   40.1    1.3   1.26   0.65    0.00    1.83
 2015 272   108   106   95.2   26.1   69.1   1.49   1.25  103.2   29.6   39.5    1.2   1.25   0.66    0.00    1.87
 2015 273   109   107   95.4   27.3   68.1   1.49   1.23  103.6   29.2   39.0    1.2   1.23   0.65    0.00    1.91
 2015 274   110   108   95.6   28.6   67.0   1.49   1.21  103.9   28.7   38.3    1.2   1.21   0.65    0.00    1.94
 2015 275   111   109   95.9   29.8   66.1   1.49   1.19  104.4   28.3   37.8    1.2   1.19   0.65    0.00    1.98
 2015 276   112   110   96.3   31.1   65.2   1.49   1.18  105.0   27.9   37.3    1.2   1.18   0.65    0.00    2.02
 2015 277   113   111   96.6   32.3   64.3   1.49   1.16  105.5   27.5   36.8    1.2   1.16   0.65    0.00    2.06
 2015 278   114   112   96.9   33.5   63.4   1.49   1.14  106.0   27.1   36.3    1.1   1.14   0.65    0.00    2.10
 2015 279   115   113   97.2   34.8   62.5   1.49   1.13  106.6   26.7   35.7    1.1   1.13   0.65    0.00    2.15
 2015 280   116   114   97.6   36.0   61.6   1.49   1.11  107.1   26.3   35.2    1.1   1.11   0.66    0.00    2.19
 2015 281   117   115   97.9   37.2   60.6   1.48   1.09  107.6   26.0   34.7    1.1   1.09   0.66    0.00    2.23
 2015 282   118   116   98.2   38.4   59.7   1.48   1.08  108.2   25.6   34.2    1.1   1.08   0.66    0.00    2.28
 2015 283   119   117   98.5   39.7   58.8   1.48   1.06  108.7   25.2   33.6    1.1   1.06   0.67    0.00    2.32
 2015 284   120   118   98.7   40.9   57.9   1.48   1.04  109.2   24.8   33.1    1.0   1.04   0.67    0.00    2.37
 2015 285   121   119   99.0   42.1   56.9   1.48   1.03  109.7   24.4   32.6    1.0   1.03   0.68    0.00    2.42
 2015 286   122   120   99.3   43.3   56.0   1.48   1.01  110.2   24.0   32.0    1.0   1.01   0.68    0.00    2.47
 2015 287   123   121   99.6   44.5   55.1   1.48   0.99  110.6   23.6   31.5    1.0   0.99   0.68    0.00    2.52
 2015 288   124   122   99.8   45.7   54.1   1.48   0.98  111.1   23.2   30.9    1.0   0.98   0.68    0.00    2.57
 2015 289   125   123  100.0   46.9   53.1   1.48   0.96  111.4   22.7   30.4    1.0   0.96   0.68    0.00    2.62
 2015 290   126   124  100.2   48.0   52.2   1.47   0.94  111.8   22.3   29.8    0.9   0.94   0.68    0.00    2.67
 2015 291   127   125  100.4   49.2   51.2   1.47   0.92  112.2   21.9   29.3    0.9   0.92   0.68    0.00    2.72
 2015 292   128   126  100.7   50.3   50.3   1.47   0.91  112.7   21.5   28.8    0.9   0.91   0.69    0.00    2.77
 2015 293   129   127  100.9   51.5   49.4   1.47   0.89  113.1   21.1   28.2    0.9   0.89   0.69    0.00    2.83
 2015 294   130   128  101.1   52.6   48.5   1.46   0.87  113.4   20.7   27.7    0.9   0.87   0.69    0.00    2.88
 2015 295   131   129  101.2   53.7   47.5   1.46   0.86  113.8   20.3   27.2    0.9   0.86   0.69    0.00    2.93
 2015 296   132   130  101.4   54.8   46.6   1.46   0.84  114.1   19.9   26.6    0.8   0.84   0.70    0.00    2.99
 2015 297   133   131  101.5   55.9   45.7   1.45   0.82  114.4   19.5   26.1    0.8   0.82   0.70    0.00    3.04
 2015 298   134   132  101.7   56.9   44.7   1.45   0.81  114.7   19.2   25.6    0.8   0.81   0.70    0.00    3.10
 2015 299   135   133  101.8   58.0   43.8   1.45   0.79  114.9   18.8   25.1    0.8   0.79   0.70    0.00    3.16
 2015 300   136   134  101.9   59.0   42.9   1.44   0.77  115.1   18.4   24.5    0.8   0.77   0.70    0.00    3.21
 2015 301   137   135  102.1   60.0   42.1   1.44   0.76  115.6   18.0   24.1    0.8   0.76   0.70    0.00    3.27
 2015 302   138   136  102.1   60.0   42.1   1.44   0.76  115.6   18.0   24.1    0.8   0.76   0.70    0.00    3.27
 2015 303   139   137  102.1   60.0   42.1   1.44   0.76  115.6   18.0   24.1    0.8   0.76   0.70    0.00    3.27
 2015 304   140   138  102.1   60.0   42.1   1.44   0.76  115.6   18.0   24.1    0.8   0.76   0.70    0.00    3.27
 2015 305   141   139  102.1   60.0   42.1   1.44   0.76  115.6   18.0   24.1    0.8   0.76   0.70    0.00    3.27
