*GROWTH ASPECTS OUTPUT FILE

*DSSAT Cropping System Model Ver. 4.7.5.008 -release  JAN 07, 2021 20:14:37

*RUN   1        : ERiMA DCC1                MZCER047 ETMZmelk    1
 MODEL          : MZCER047 - Maize
 EXPERIMENT     : ETMZmelk SN MELKSSAL
 DATA PATH      : C:\IRI\Python_Dash\ET_DSS_hist\TEST\
 TREATMENT  1   : ERiMA DCC1                MZCER047
  
!                                                                                                                                                                                                                                      Root Dens. (cm/cm3) by soil depth (cm):
!                                                                                                                                                                                                                                      0-5    5-15   15-20   20-35   35-50   50-65   65-81   81-97  97-118 118-200
@YEAR DOY   DAS   DAP   L#SD   GSTD   LAID   LWAD   SWAD   GWAD   RWAD   VWAD   CWAD   G#AD   GWGD   HIAD   PWAD   P#AD   WSPD   WSGD   NSTD   EWSD  PST1A  PST2A   KSTD   LN%D   SH%D   HIPD   PWDD   PWTD     SLAD   CHTD   CWID   RDPD    RL1D    RL2D    RL3D    RL4D    RL5D    RL6D    RL7D    RL8D    RL9D   RL10D   CDAD   LDAD   SDAD   SNW0C   SNW1C  DTTD
 1981 166     2     0    0.0      0   0.00      0      0      0      0      0      0      0    0.0  0.000      0      0  0.000  0.000  0.000  0.000  0.000  0.000  0.000   0.00   0.00   0.00      0      0      0.0   0.00   0.00   0.03    0.00    0.00    0.00    0.00    0.00    0.00    0.00    0.00    0.00    0.00      0      0      0       0       0 15.13
 1981 167     3     1    0.0      0   0.00      0      0      0      0      0      0      0    0.0  0.000      0      0  0.000  0.000  0.000  0.000  0.000  0.000  0.000   0.00   0.00   0.00      0      0      0.0   0.00   0.00   0.05    0.00    0.00    0.00    0.00    0.00    0.00    0.00    0.00    0.00    0.00      0      0      0       0       0 16.57
 1981 168     4     2    0.0      0   0.00      0      0      0      0      0      0      0    0.0  0.000      0      0  0.000  0.000  0.000  0.000  0.000  0.000  0.000   0.00   0.00   0.00      0      0      0.0   0.00   0.00   0.07    0.00    0.00    0.00    0.00    0.00    0.00    0.00    0.00    0.00    0.00      0      0      0       0       0 15.78
 1981 169     5     3    0.0      0   0.00      0      0      0      0      0      0      0    0.0  0.000      0      0  0.000  0.000  0.000  0.000  0.000  0.000  0.000   0.00   0.00   0.00      0      0      0.0   0.00   0.00   0.10    0.00    0.00    0.00    0.00    0.00    0.00    0.00    0.00    0.00    0.00      0      0      0       0       0 17.28
 1981 170     6     4    0.0      0   0.00      0      0      0      0      0      0      0    0.0  0.000      0      0  0.000  0.000  0.000  0.000  0.000  0.000  0.000   0.00   0.00   0.00      0      0      0.0   0.00   0.00   0.12    0.00    0.00    0.00    0.00    0.00    0.00    0.00    0.00    0.00    0.00      0      0      0       0       0 15.66
 1981 171     7     5    2.0      1   0.00     12     12      0     12     24     24      0    0.0  0.000      0      0  0.000  0.000  0.012  0.000  0.000  0.000  0.000   4.40   0.00   0.00      0      0     27.9   0.00   0.00   0.14    0.24    0.09    0.00    0.00    0.00    0.00    0.00    0.00    0.00    0.00      0      0      0       0       0 14.98
 1981 172     8     6    2.0      1   0.01     12     12      0     12     24     24      0    0.0  0.000      0      0  0.000  0.000  0.014  0.000  0.000  0.000  0.000   4.40   0.00   0.00      0      0     54.2   0.00   0.00   0.15    0.24    0.09    0.00    0.00    0.00    0.00    0.00    0.00    0.00    0.00      0      0      0       0       0 14.61
 1981 173     9     7    3.0      1   0.01     12     12      0     13     24     24      0    0.0  0.000      0      0  0.000  0.000  0.007  0.000  0.000  0.000  0.000   4.40   0.00   0.00      0      0     87.4   0.01   0.00   0.17    0.23    0.10    0.00    0.00    0.00    0.00    0.00    0.00    0.00    0.00      0      0      0       0       0 15.93
 1981 174    10     8    3.0      1   0.02     12     12      0     14     24     24      0    0.0  0.000      0      0  0.000  0.000  0.001  0.000  0.000  0.000  0.000   4.40   0.00   0.00      0      0    125.6   0.01   0.00   0.18    0.23    0.12    0.01    0.00    0.00    0.00    0.00    0.00    0.00    0.00      0      0      0       0       0 16.41
 1981 175    11     9    4.0      1   0.03     12     12      0     15     24     24      0    0.0  0.000      0      0  0.000  0.000  0.000  0.000  0.000  0.000  0.000   4.40   0.00   0.00      0      0    244.3   0.02   0.00   0.20    0.25    0.13    0.03    0.00    0.00    0.00    0.00    0.00    0.00    0.00      0      0      0       0       0 15.31
 1981 176    12    10    4.0      1   0.05     14     12      0     17     26     26      0    0.0  0.000      0      0  0.000  0.000  0.000  0.000  0.000  0.000  0.000   4.07   0.00   0.00      0      0    333.2   0.03   0.00   0.21    0.26    0.15    0.04    0.00    0.00    0.00    0.00    0.00    0.00    0.00      0      0      0       0       0 15.75
 1981 177    13    11    5.0      1   0.07     22     12      0     18     34     34      0    0.0  0.000      0      0  0.000  0.000  0.000  0.000  0.000  0.000  0.000   3.14   0.00   0.00      0      0    304.9   0.04   0.00   0.22    0.27    0.16    0.05    0.00    0.00    0.00    0.00    0.00    0.00    0.00      0      0      0       0       0 15.29
 1981 178    14    12    5.0      1   0.09     30     12      0     19     42     42      0    0.0  0.000      0      0  0.000  0.000  0.019  0.000  0.000  0.000  0.000   3.39   0.00   0.00      0      0    285.6   0.05   0.00   0.23    0.28    0.17    0.06    0.00    0.00    0.00    0.00    0.00    0.00    0.00      0      0      0       0       0 13.60
 1981 179    15    13    5.0      1   0.11     41     12      0     21     53     53      0    0.0  0.000      0      0  0.000  0.000  0.000  0.000  0.000  0.000  0.000   3.29   0.00   0.00      0      0    267.6   0.06   0.00   0.25    0.30    0.18    0.08    0.00    0.00    0.00    0.00    0.00    0.00    0.00      0      0      0       0       0 15.44
 1981 180    16    14    6.0      1   0.12     49     12      0     25     61     61      0    0.0  0.000      0      0  0.174  0.450  0.000  0.000  0.000  0.000  0.000   3.61   0.00   0.00      0      0    257.0   0.07   0.00   0.26    0.34    0.22    0.12    0.00    0.00    0.00    0.00    0.00    0.00    0.00      0      0      0       0       0 16.09
 1981 181    17    15    6.0      1   0.16     64     12      0     29     76     76      0    0.0  0.000      0      0  0.000  0.000  0.000  0.000  0.000  0.000  0.000   3.25   0.00   0.00      0      0    244.3   0.09   0.00   0.27    0.38    0.25    0.15    0.00    0.00    0.00    0.00    0.00    0.00    0.00      0      0      0       0       0 15.40
 1981 182    18    16    6.0      1   0.18     79     12      0     31     91     91      0    0.0  0.000      0      0  0.000  0.000  0.000  0.000  0.000  0.000  0.000   3.38   0.00   0.00      0      0    234.1   0.10   0.00   0.28    0.40    0.27    0.16    0.01    0.00    0.00    0.00    0.00    0.00    0.00      0      0      0       0       1 12.86
 1981 183    19    17    7.0      1   0.20     88     12      0     37    100    100      0    0.0  0.000      0      0  0.134  0.423  0.000  0.000  0.000  0.000  0.000   3.60   0.00   0.00      0      0    227.5   0.11   0.00   0.29    0.46    0.33    0.22    0.01    0.00    0.00    0.00    0.00    0.00    0.00      0      0      0       0       1 13.24
 1981 184    20    18    7.0      1   0.21     97     12      0     44    109    109      0    0.0  0.000      0      0  0.431  0.621  0.000  0.000  0.000  0.000  0.000   3.65   0.00   0.00      0      0    219.0   0.12   0.00   0.30    0.52    0.39    0.27    0.02    0.00    0.00    0.00    0.00    0.00    0.00      0      0      0       0       1 15.05
 1981 185    21    19    8.0      1   0.26    121     12      0     51    133    133      0    0.0  0.000      0      0  0.000  0.000  0.000  0.000  0.000  0.000  0.000   3.20   0.00   0.00      0      0    211.0   0.14   0.00   0.31    0.58    0.45    0.33    0.03    0.00    0.00    0.00    0.00    0.00    0.00      0      0      0       0       1 14.41
 1981 186    22    20    8.0      2   0.31    140     12      0     62    152    152      0    0.0  0.000      0      0  0.000  0.000  0.000  0.000  0.000  0.000  0.000   3.38   0.00   0.00      0      0    220.3   0.17   0.00   0.33    0.69    0.55    0.42    0.04    0.00    0.00    0.00    0.00    0.00    0.00      0      0      0       0       1 14.12
 1981 187    23    21    8.0      2   0.37    176     12      0     72    188    188      0    0.0  0.000      0      0  0.000  0.000  0.003  0.000  0.000  0.000  0.000   3.15   0.00   0.00      0      0    211.5   0.21   0.00   0.36    0.78    0.64    0.48    0.06    0.00    0.00    0.00    0.00    0.00    0.00      0      0      0       0       2 15.32
 1981 188    24    22    9.0      2   0.42    207     12      0     90    219    219      0    0.0  0.000      0      0  0.000  0.262  0.000  0.000  0.000  0.000  0.000   3.29   0.00   0.00      0      0    204.5   0.23   0.00   0.37    0.96    0.81    0.61    0.08    0.00    0.00    0.00    0.00    0.00    0.00      0      0      0       0       2 15.63
 1981 189    25    23    9.0      2   0.46    233     12      0    107    245    245      0    0.0  0.000      0      0  0.105  0.404  0.000  0.000  0.000  0.000  0.000   4.06   0.00   0.00      0      0    199.2   0.26   0.00   0.38    1.05    0.97    0.74    0.11    0.00    0.00    0.00    0.00    0.00    0.00      0      0      0       0       2 14.68
 1981 190    26    24    9.0      2   0.51    260     12      0    121    272    272      0    0.0  0.000      0      0  0.000  0.318  0.000  0.000  0.000  0.000  0.000   3.91   0.00   0.00      0      0    194.9   0.28   0.00   0.38    1.06    1.15    0.87    0.14    0.00    0.00    0.00    0.00    0.00    0.00      0      0      0       0       3 12.28
 1981 191    27    25   10.0      3   0.54    286     12      0    140    298    298      0    0.0  0.000      0      0  0.092  0.395  0.000  0.000  0.000  0.000  0.000   3.82   0.00   0.00      0      0    189.3   0.30   0.00   0.39    1.24    1.32    1.00    0.17    0.00    0.00    0.00    0.00    0.00    0.00      0      0      0       0       4 12.10
 1981 192    28    26   10.0      3   0.62    335     12      0    148    347    347      0    0.0  0.000      0      0  0.000  0.000  0.000  0.000  0.000  0.000  0.000   3.77   0.00   0.00      0      0    184.2   0.34   0.00   0.40    1.30    1.39    1.06    0.18    0.00    0.00    0.00    0.00    0.00    0.00      0      0      0       0       4 12.76
 1981 193    29    27   10.0      3   0.70    389     13      0    156    402    402      0    0.0  0.000      0      0  0.000  0.000  0.000  0.000  0.000  0.000  0.000   3.72   0.00   0.00      0      0    179.3   0.39   0.00   0.41    1.36    1.45    1.13    0.21    0.00    0.00    0.00    0.00    0.00    0.00      0      0      0       0       5 12.82
 1981 194    30    28   11.0      3   0.80    457     16      0    179    473    473      0    0.0  0.000      0      0  0.000  0.000  0.000  0.000  0.000  0.000  0.000   3.69   0.00   0.00      0      0    174.1   0.44   0.00   0.42    1.51    1.62    1.30    0.28    0.00    0.00    0.00    0.00    0.00    0.00      0      0      0       0       6 14.78
 1981 195    31    29   11.0      3   0.89    523     19      0    199    542    542      0    0.0  0.000      0      0  0.000  0.000  0.000  0.000  0.000  0.000  0.000   3.61   0.00   0.00      0      0    169.9   0.49   0.00   0.42    1.65    1.76    1.44    0.34    0.01    0.00    0.00    0.00    0.00    0.00      0      0      0       0       7 12.85
 1981 196    32    30   11.0      3   0.98    593     24      0    218    617    617      0    0.0  0.000      0      0  0.000  0.000  0.000  0.000  0.000  0.000  0.000   3.56   0.00   0.00      0      0    166.0   0.55   0.00   0.43    1.80    1.90    1.59    0.41    0.01    0.00    0.00    0.00    0.00    0.00      0      0      0       0       8 12.70
 1981 197    33    31   12.0      3   1.09    675     32      0    241    708    708      0    0.0  0.000      0      0  0.000  0.000  0.000  0.000  0.000  0.000  0.000   3.53   0.00   0.00      0      0    162.0   0.61   0.00   0.44    1.97    2.06    1.75    0.48    0.01    0.00    0.00    0.00    0.00    0.00      0      0      0       0       9 12.20
 1981 198    34    32   12.0      3   1.21    762     43      0    258    805    805      0    0.0  0.000      0      0  0.000  0.000  0.000  0.000  0.000  0.000  0.000   3.48   0.00   0.00      0      0    158.3   0.67   0.00   0.45    2.09    2.18    1.87    0.53    0.02    0.00    0.00    0.00    0.00    0.00      0      0      0       0      10 12.45
 1981 199    35    33   12.0      3   1.32    850     57      0    283    907    907      0    0.0  0.000      0      0  0.000  0.000  0.000  0.000  0.000  0.000  0.000   3.42   0.00   0.00      0      0    155.1   0.73   0.00   0.46    2.23    2.36    2.06    0.62    0.02    0.00    0.00    0.00    0.00    0.00      0      0      0       0      11 12.30
 1981 200    36    34   13.0      3   1.43    940     75      0    305   1015   1015      0    0.0  0.000      0      0  0.000  0.000  0.000  0.000  0.000  0.000  0.000   3.37   0.00   0.00      0      0    152.2   0.79   0.00   0.46    2.37    2.52    2.23    0.69    0.03    0.00    0.00    0.00    0.00    0.00      0      0      0       0      13 12.40
 1981 201    37    35   13.0      3   1.54   1032     96      0    321   1128   1128      0    0.0  0.000      0      0  0.000  0.000  0.000  0.000  0.000  0.000  0.000   3.33   0.00   0.00      0      0    149.5   0.86   0.00   0.47    2.45    2.64    2.35    0.75    0.03    0.00    0.00    0.00    0.00    0.00      0      0      0       0      14 12.30
 1981 202    38    36   13.0      3   1.66   1130    124      0    345   1255   1255      0    0.0  0.000      0      0  0.000  0.000  0.000  0.000  0.000  0.000  0.000   3.29   0.00   0.00      0      0    146.9   0.92   0.00   0.48    2.58    2.80    2.53    0.84    0.04    0.00    0.00    0.00    0.00    0.00      0      0      0       0      16 13.00
 1981 203    39    37   14.0      3   1.77   1220    153      0    363   1374   1374      0    0.0  0.000      0      0  0.000  0.000  0.000  0.000  0.000  0.000  0.000   3.23   0.00   0.00      0      0    144.8   0.98   0.00   0.49    2.68    2.93    2.67    0.91    0.05    0.00    0.00    0.00    0.00    0.00      0      0      0       0      18 11.65
 1981 204    40    38   14.0      3   1.88   1314    189      0    395   1503   1503      0    0.0  0.000      0      0  0.000  0.000  0.000  0.000  0.000  0.000  0.000   3.20   0.00   0.00      0      0    142.7   1.04   0.00   0.50    2.78    3.15    2.93    1.04    0.07    0.00    0.00    0.00    0.00    0.00      0      0      0       0      19 12.00
 1981 205    41    39   14.0      3   1.99   1413    231      0    434   1643   1643      0    0.0  0.000      0      0  0.000  0.000  0.000  0.000  0.000  0.000  0.000   3.16   0.00   0.00      0      0    140.7   1.10   0.00   0.50    2.86    3.39    3.26    1.23    0.09    0.00    0.00    0.00    0.00    0.00      0      0      0       0      21 12.35
 1981 206    42    40   15.0      3   2.10   1509    278      0    459   1787   1787      0    0.0  0.000      0      0  0.000  0.000  0.000  0.000  0.000  0.000  0.000   3.12   0.00   0.00      0      0    139.0   1.16   0.00   0.51    2.87    3.51    3.47    1.37    0.12    0.00    0.00    0.00    0.00    0.00      0      0      0       0      24 12.00
 1981 207    43    41   15.0      3   2.19   1594    324      0    467   1918   1918      0    0.0  0.000      0      0  0.000  0.000  0.000  0.000  0.000  0.000  0.000   3.07   0.00   0.00      0      0    137.5   1.22   0.00   0.52    2.86    3.53    3.52    1.43    0.13    0.00    0.00    0.00    0.00    0.00      0      0      0       0      26 10.40
 1981 208    44    42   15.0      3   2.30   1688    380      0    499   2068   2068      0    0.0  0.000      0      0  0.000  0.000  0.000  0.000  0.000  0.000  0.000   3.03   0.00   0.00      0      0    136.0   1.27   0.00   0.52    2.86    3.59    3.73    1.67    0.20    0.01    0.00    0.00    0.00    0.00      0      0      0       0      28 11.40
 1981 209    45    43   15.0      3   2.40   1787    446      0    524   2233   2233      0    0.0  0.000      0      0  0.000  0.000  0.000  0.000  0.000  0.000  0.000   2.92   0.00   0.00      0      0    134.5   1.33   0.00   0.53    2.86    3.59    3.73    1.88    0.29    0.02    0.00    0.00    0.00    0.00      0      0      0       0      31 11.85
 1981 210    46    44   16.0      3   2.49   1871    507      0    529   2378   2378      0    0.0  0.000      0      0  0.000  0.000  0.000  0.000  0.000  0.000  0.000   2.81   0.00   0.00      0      0    133.3   1.38   0.00   0.54    2.86    3.58    3.72    1.91    0.33    0.03    0.00    0.00    0.00    0.00      0      0      0       0      33 11.50
 1981 211    47    45   16.0      3   2.59   1962    580      0    536   2542   2542      0    0.0  0.000      0      0  0.000  0.000  0.000  0.000  0.000  0.000  0.000   2.93   0.00   0.00      0      0    132.1   1.44   0.00   0.55    3.14    3.57    3.70    1.90    0.34    0.04    0.00    0.00    0.00    0.00      0      0      0       0      36 11.70
 1981 212    48    46   16.0      3   2.68   2047    653      0    542   2700   2700      0    0.0  0.000      0      0  0.000  0.000  0.000  0.000  0.000  0.000  0.000   2.90   0.00   0.00      0      0    131.0   1.49   0.00   0.55    3.42    3.55    3.69    1.89    0.35    0.04    0.00    0.00    0.00    0.00      0      0      0       0      39 10.85
 1981 213    49    47   17.0      3   2.79   2148    746      0    564   2895   2898      0    0.0  0.000      3      0  0.000  0.000  0.000  0.000  0.000  0.000  0.000   2.88   0.00   0.00      0      3    129.7   1.55   0.00   0.56    4.00    3.63    3.68    1.88    0.37    0.05    0.00    0.00    0.00    0.00      0      0      0       0      41 11.70
 1981 214    50    48   17.0      3   2.89   2245    801      0    570   3046   3050      0    0.0  0.000      4      0  0.000  0.000  0.000  0.000  0.000  0.000  0.000   2.82   0.00   0.00      0      4    128.6   1.60   0.00   0.57    4.00    3.67    3.67    1.88    0.37    0.05    0.00    0.00    0.00    0.00      0      0      0       0      44 12.15
 1981 215    51    49   17.0      3   3.00   2353    913      0    580   3267   3275      0    0.0  0.000      8      0  0.000  0.000  0.000  0.000  0.000  0.000  0.000   2.82   0.00   0.00      0      8    127.5   1.60   0.00   0.58    4.00    3.74    3.70    1.87    0.37    0.05    0.00    0.00    0.00    0.00      0      0      0       0      47 12.15
 1981 216    52    50   18.0      3   3.09   2440   1030      0    588   3470   3483      0    0.0  0.000     12      0  0.000  0.000  0.000  0.000  0.000  0.000  0.000   2.77   0.00   0.00      0     12    126.6   1.60   0.00   0.58    4.00    3.78    3.73    1.86    0.38    0.06    0.00    0.00    0.00    0.00      0      0      0       0      50 12.20
 1981 217    53    51   18.0      3   3.18   2526   1164      0    598   3690   3709      0    0.0  0.000     20      0  0.000  0.000  0.000  0.000  0.000  0.000  0.000   2.66   0.00   0.01      0     20    125.7   1.60   0.00   0.59    4.00    3.80    3.73    1.86    0.40    0.08    0.00    0.00    0.00    0.00      0      0      0       0      53 12.25
 1981 218    54    52   18.0      3   3.26   2609   1308      0    608   3917   3947      0    0.0  0.000     30      0  0.000  0.000  0.000  0.000  0.000  0.000  0.000   2.54   0.00   0.01      0     30    124.9   1.60   0.00   0.60    4.00    3.81    3.74    1.87    0.44    0.14    0.00    0.00    0.00    0.00      0      0      0       0      56 12.15
 1981 219    55    53   18.0      3   3.34   2692   1461      0    628   4152   4199      0    0.0  0.000     47      0  0.000  0.000  0.000  0.000  0.000  0.000  0.000   2.42   0.00   0.01      0     47    124.2   1.60   0.00   0.61    4.00    3.86    3.79    1.90    0.51    0.25    0.00    0.00    0.00    0.00      0      0      0       0      59 11.80
 1981 220    56    54   19.0      3   3.41   2766   1605      0    650   4371   4438      0    0.0  0.000     67      0  0.000  0.000  0.004  0.000  0.000  0.000  0.000   2.32   0.00   0.02      0     67    123.4   1.60   0.00   0.61    4.00    3.90    3.84    1.92    0.58    0.37    0.00    0.00    0.00    0.00      0      0      0       0      62 11.60
 1981 221    57    55   19.0      3   3.48   2840   1755      0    666   4595   4686      0    0.0  0.000     92      0  0.000  0.000  0.023  0.000  0.000  0.000  0.000   2.22   0.00   0.02      0     92    122.4   1.60   0.00   0.62    4.00    3.94    3.87    1.95    0.63    0.47    0.00    0.00    0.00    0.00      0      0      0       0      65 12.90
 1981 222    58    56   19.0      3   3.52   2899   1881      0    675   4781   4896      0    0.0  0.000    115      0  0.000  0.000  0.037  0.000  0.000  0.000  0.000   2.15   0.00   0.02      0    115    121.4   1.60   0.00   0.63    4.00    3.95    3.88    1.95    0.66    0.53    0.00    0.00    0.00    0.00      0      0      0       0      69 12.25
 1981 223    59    57   20.0      3   3.55   2951   1995      0    682   4947   5087      0    0.0  0.000    140      0  0.000  0.000  0.051  0.000  0.000  0.000  0.000   2.09   0.00   0.03      0    140    120.2   1.60   0.00   0.64    4.00    3.96    3.89    1.96    0.68    0.58    0.00    0.00    0.00    0.00      0      0      0       0      72 12.55
 1981 224    60    58   20.0      3   3.56   2990   2084      0    687   5074   5234      0    0.0  0.000    161      0  0.000  0.000  0.060  0.000  0.000  0.000  0.000   2.05   0.00   0.03      0    161    119.0   1.60   0.00   0.65    4.00    3.96    3.90    1.96    0.69    0.62    0.00    0.00    0.00    0.00      0      0      0       0      75 11.75
 1981 225    61    59   20.0      3   3.58   3039   2174      0    719   5213   5424      0    0.0  0.000    211      0  0.000  0.000  0.067  0.000  0.000  0.000  0.000   2.01   0.00   0.04      0    211    117.7   1.60   0.00   0.65    4.00    4.00    3.98    2.01    0.76    0.80    0.00    0.00    0.00    0.00      0      0      0       0      79 11.85
 1981 226    62    60   21.0      3   3.59   3087   2259      0    748   5346   5619      0    0.0  0.000    272      0  0.000  0.000  0.070  0.000  0.000  0.000  0.000   1.97   0.00   0.05      0    272    116.3   1.60   0.00   0.65    4.00    4.00    4.00    2.06    0.83    0.96    0.00    0.00    0.00    0.00      0      0      0       0      82 12.35
 1981 227    63    61   21.0      3   3.60   3133   2329      0    778   5462   5804      0    0.0  0.000    342      0  0.000  0.000  0.075  0.000  0.000  0.000  0.000   1.94   0.00   0.06      0    342    115.0   1.60   0.00   0.65    4.00    4.00    4.00    2.11    0.89    1.12    0.00    0.00    0.00    0.00      0      0      0       0      86 11.95
 1981 228    64    62   21.0      3   3.60   3173   2398      0    783   5570   5963      0    0.0  0.000    393      0  0.000  0.000  0.079  0.000  0.000  0.000  0.000   1.91   0.00   0.07      0    393    113.6   1.60   0.00   0.65    4.00    4.00    4.00    2.12    0.90    1.16    0.00    0.00    0.00    0.00      0      0      0       0      90 11.40
 1981 229    65    63   21.0      3   3.61   3218   2437      0    822   5655   6146      0    0.0  0.000    491      0  0.000  0.000  0.081  0.000  0.000  0.000  0.000   1.89   0.00   0.08      0    491    112.2   1.60   0.00   0.65    4.00    4.00    4.00    2.20    0.97    1.35    0.00    0.00    0.00    0.00      0      0      0       0      94 12.00
 1981 230    66    64   21.0      3   3.62   3265   2450      0    877   5716   6334      0    0.0  0.000    619      0  0.000  0.000  0.082  0.000  0.000  0.000  0.000   1.88   0.00   0.10      0    619    110.8   1.60   0.00   0.65    4.00    4.00    4.00    2.31    1.05    1.61    0.00    0.00    0.00    0.00      0      0      0       0      98 12.40
 1981 231    67    65   21.0      3   3.63   3312   2520      0    937   5832   6520      0    0.0  0.000    688      0  0.000  0.000  0.082  0.000  0.000  0.000  0.000   1.85   0.00   0.11      0    688    109.5   1.60   0.00   0.65    4.00    4.00    4.00    2.44    1.15    1.88    0.00    0.00    0.00    0.00      0      0      0       0     102 12.20
 1981 232    68    66   21.0      3   3.63   3358   2521      0    974   5880   6705      0    0.0  0.000    826      0  0.000  0.000  0.080  0.000  0.000  0.000  0.000   1.85   0.00   0.12      0    826    108.2   1.60   0.00   0.65    4.00    4.00    4.00    2.52    1.20    2.04    0.00    0.00    0.00    0.00      0      0      0       0     107 12.10
 1981 233    69    67   21.0      3   3.64   3401   2585      0   1019   5987   6877      0    0.0  0.000    890      0  0.000  0.000  0.082  0.000  0.000  0.000  0.000   1.82   0.00   0.13      0    890    106.9   1.60   0.00   0.65    4.00    4.00    4.00    2.63    1.26    2.23    0.00    0.00    0.00    0.00      0      0      0       0     112 11.25
 1981 234    70    68   21.0      4   3.60   3366   2682      0   1023   6048   7041      0    0.0  0.000    993      0  0.000  0.000  0.079  0.000  0.000  0.000  0.000   1.81   0.00   0.14      0    993    107.0   1.60   0.00   0.65    4.00    4.00    4.00    2.63    1.26    2.25    0.00    0.00    0.00    0.00      0      0      0       0     117 11.65
 1981 235    71    69   21.0      4   3.57   3329   2781      0   1027   6110   7223      0    0.0  0.000   1113      0  0.000  0.000  0.079  0.000  0.000  0.000  0.000   1.80   0.00   0.15      0   1113    107.1   1.60   0.00   0.65    4.00    4.00    4.00    2.64    1.26    2.28    0.00    0.00    0.00    0.00      0      0      0       0     122 12.30
 1981 236    72    70   21.0      4   3.53   3289   2867      0   1031   6156   7386      0    0.0  0.000   1230      0  0.000  0.000  0.077  0.000  0.000  0.000  0.000   1.80   0.00   0.17      0   1230    107.4   1.60   0.00   0.65    4.00    4.00    4.00    2.65    1.26    2.30    0.00    0.00    0.00    0.00      0      0      0       0     127 11.65
 1981 237    73    71   21.0      4   3.50   3248   2955      0   1035   6202   7569      0    0.0  0.000   1367      0  0.000  0.000  0.074  0.000  0.000  0.000  0.000   1.79   0.00   0.18      0   1367    107.7   1.60   0.00   0.65    4.00    4.00    4.00    2.66    1.26    2.33    0.00    0.00    0.00    0.00      0      0      0       0     133 12.20
 1981 238    74    72   21.0      4   3.47   3204   3032      0   1039   6236   7738      0    0.0  0.000   1503      0  0.000  0.000  0.069  0.000  0.000  0.000  0.000   1.79   0.00   0.19      0   1503    108.2   1.60   0.00   0.65    4.00    4.00    4.00    2.68    1.25    2.35    0.00    0.00    0.00    0.00      0      0      0       0     138 12.40
 1981 239    75    73   21.0      4   3.44   3158   3112      0   1045   6271   7933      0    0.0  0.000   1662      0  0.000  0.000  0.065  0.000  0.000  0.000  0.000   1.78   0.00   0.21      0   1662    108.9   1.60   0.00   0.65    4.00    4.00    4.00    2.69    1.25    2.37    0.00    0.00    0.00    0.00      0      0      0       0     143 12.10
 1981 240    76    74   21.0      4   3.41   3111   3194      0   1051   6305   8147      0    0.0  0.000   1842      0  0.000  0.000  0.060  0.000  0.000  0.000  0.000   1.78   0.00   0.23      0   1842    109.7   1.60   0.00   0.65    4.00    4.00    4.00    2.71    1.25    2.40    0.00    0.00    0.00    0.00      0      0      0       0     148 12.20
 1981 241    77    75   21.0      4   3.39   3061   3268      0   1057   6329   8354      0    0.0  0.000   2025      0  0.000  0.000  0.055  0.000  0.000  0.000  0.000   1.78   0.00   0.24      0   2025    110.8   1.60   0.00   0.65    4.00    4.00    4.00    2.73    1.25    2.42    0.00    0.00    0.00    0.00      0      0      0       0     153 12.00
 1981 242    78    76   21.0      4   3.37   3009   3328      0   1061   6338   8527      0    0.0  0.000   2189      0  0.000  0.000  0.050  0.000  0.000  0.000  0.000   1.79   0.00   0.26      0   2189    112.0   1.60   0.00   0.65    4.00    4.00    4.00    2.74    1.25    2.44    0.00    0.00    0.00    0.00      0      0      0       0     159 12.15
 1981 243    79    77   21.0      4   3.35   2955   3379      0   1065   6334   8678      0    0.0  0.000   2343      0  0.000  0.000  0.044  0.000  0.000  0.000  0.000   1.79   0.00   0.27      0   2343    113.4   1.60   0.00   0.65    4.00    4.00    4.00    2.75    1.25    2.45    0.00    0.00    0.00    0.00      0      0      0       0     164 12.30
 1981 244    80    78   21.0      4   3.34   2900   3422      0   1068   6322   8814      0    0.0  0.000   2491      0  0.000  0.000  0.037  0.000  0.000  0.000  0.000   1.80   0.00   0.28      0   2491    115.0   1.60   0.00   0.65    4.00    4.00    4.00    2.76    1.25    2.46    0.00    0.00    0.00    0.00      0      0      0       0     169 10.95
 1981 245    81    79   21.0      4   3.32   2842   3488      0   1076   6330   9077      0    0.0  0.000   2747      0  0.000  0.000  0.029  0.000  0.000  0.000  0.000   1.81   0.00   0.30      0   2747    116.9   1.60   0.00   0.65    4.00    4.00    4.00    2.79    1.25    2.48    0.00    0.00    0.00    0.00      0      0      0       0     175 12.30
 1981 246    82    80   21.0      4   3.32   2782   3531      0   1081   6313   9257      0    0.0  0.000   2944      0  0.000  0.000  0.020  0.000  0.000  0.000  0.000   1.82   0.00   0.32      0   2944    119.2   1.60   0.00   0.65    4.00    4.00    4.00    2.81    1.25    2.49    0.00    0.00    0.00    0.00      0      0      0       0     180 11.90
 1981 247    83    81   21.0      4   3.31   2720   3573      0   1088   6293   9459      0    0.0  0.000   3166      0  0.000  0.000  0.012  0.000  0.000  0.000  0.000   1.83   0.00   0.33      0   3166    121.7   1.60   0.00   0.65    4.00    4.00    4.00    2.83    1.25    2.51    0.00    0.00    0.00    0.00      0      0      0       0     185 11.95
 1981 248    84    82   21.0      5   3.31   2720   3573    100   1119   6293   9559    937   10.6  0.010   3265      6  0.000  0.000  0.002  0.000  0.000  0.000  0.000   1.80   3.06   0.34      0   3265    121.6   1.60   0.00   0.65    4.00    4.00    4.00    2.93    1.26    2.57    0.00    0.00    0.00    0.00      0      0      0       0     191 11.35
 1981 249    85    83   21.0      5   3.31   2720   3573    200   1156   6293   9658    937   21.3  0.021   3365      6  0.000  0.000  0.006  0.000  0.000  0.000  0.000   1.78   5.93   0.35      0   3365    121.6   1.60   0.00   0.65    4.00    4.00    4.00    3.06    1.28    2.63    0.00    0.00    0.00    0.00      0      0      0       0     196 12.00
 1981 250    86    84   21.0      5   3.30   2720   3573    299   1191   6293   9758    937   32.0  0.031   3465      6  0.000  0.000  0.006  0.000  0.000  0.000  0.000   1.76   8.64   0.36      0   3465    121.5   1.60   0.00   0.65    4.00    4.00    4.00    3.17    1.29    2.68    0.00    0.00    0.00    0.00      0      0      0       0     202 12.20
 1981 251    87    85   21.0      5   3.30   2720   3573    399   1237   6293   9858    937   42.6  0.040   3565      6  0.000  0.000  0.005  0.000  0.000  0.000  0.000   1.74  11.20   0.36      0   3565    121.4   1.60   0.00   0.65    4.00    4.00    4.00    3.32    1.31    2.78    0.00    0.00    0.00    0.00      0      0      0       0     208 12.75
 1981 252    88    86   21.0      5   3.30   2720   3573    499   1280   6293   9958    937   53.2  0.050   3664      6  0.000  0.000  0.005  0.000  0.000  0.000  0.000   1.71  13.62   0.37      0   3664    121.3   1.60   0.00   0.65    4.00    4.00    4.00    3.46    1.33    2.87    0.00    0.00    0.00    0.00      0      0      0       0     214 13.00
 1981 253    89    87   21.0      5   3.30   2720   3573    599   1315   6293  10057    937   63.9  0.060   3764      6  0.000  0.000  0.005  0.000  0.000  0.000  0.000   1.69  15.91   0.37      0   3764    121.2   1.60   0.00   0.65    4.00    4.00    4.00    3.57    1.35    2.94    0.00    0.00    0.00    0.00      0      0      0       0     221 12.60
 1981 254    90    88   21.0      5   3.30   2720   3573    699   1340   6293  10157    937   74.6  0.069   3864      6  0.000  0.000  0.006  0.000  0.000  0.000  0.000   1.67  18.08   0.38      0   3864    121.1   1.60   0.00   0.65    4.00    4.00    4.00    3.65    1.36    2.97    0.00    0.00    0.00    0.00      0      0      0       0     227 11.85
 1981 255    91    89   21.0      5   3.29   2720   3573    798   1377   6293  10257    937   85.2  0.078   3964      6  0.000  0.000  0.006  0.000  0.000  0.000  0.000   1.65  20.14   0.39      0   3964    121.0   1.60   0.00   0.65    4.00    4.00    4.00    3.78    1.38    3.03    0.00    0.00    0.00    0.00      0      0      0       0     234 11.65
 1981 256    92    90   21.0      5   3.29   2720   3573    898   1404   6293  10357    937   95.8  0.087   4064      6  0.000  0.000  0.007  0.000  0.000  0.000  0.000   1.62  22.10   0.39      0   4064    120.9   1.60   0.00   0.65    4.00    4.00    4.00    3.87    1.39    3.07    0.00    0.00    0.00    0.00      0      0      0       0     241 11.60
 1981 257    93    91   21.0      5   3.29   2720   3573    998   1420   6293  10457    937  106.5  0.095   4163      6  0.000  0.000  0.008  0.000  0.000  0.000  0.000   1.60  23.97   0.40      0   4163    120.8   1.60   0.00   0.65    4.00    4.00    4.00    3.93    1.39    3.08    0.00    0.00    0.00    0.00      0      0      0       0     248 11.35
 1981 258    94    92   21.0      5   3.28   2720   3573   1098   1453   6293  10556    937  117.2  0.104   4263      6  0.000  0.000  0.009  0.000  0.000  0.000  0.000   1.58  25.75   0.40      0   4263    120.7   1.60   0.00   0.65    4.00    4.00    4.00    4.00    1.41    3.11    0.00    0.00    0.00    0.00      0      0      0       0     255 12.50
 1981 259    95    93   21.0      5   3.28   2720   3573   1197   1487   6293  10656    937  127.8  0.112   4363      6  0.000  0.000  0.010  0.000  0.000  0.000  0.000   1.55  27.45   0.41      0   4363    120.5   1.60   0.00   0.65    4.00    4.00    4.00    4.00    1.43    3.14    0.00    0.00    0.00    0.00      0      0      0       0     262 12.45
 1981 260    96    94   21.0      5   3.27   2720   3573   1297   1527   6293  10756    937  138.5  0.121   4463      6  0.000  0.000  0.011  0.000  0.000  0.000  0.000   1.53  29.07   0.41      0   4463    120.4   1.60   0.00   0.65    4.00    4.00    4.00    4.00    1.45    3.16    0.00    0.00    0.00    0.00      0      0      0       0     270 11.90
 1981 261    97    95   21.0      5   3.27   2720   3573   1397   1550   6293  10856    937  149.1  0.129   4563      6  0.000  0.000  0.013  0.000  0.000  0.000  0.000   1.51  30.62   0.42      0   4563    120.2   1.60   0.00   0.65    4.00    4.00    4.00    4.00    1.46    3.17    0.00    0.00    0.00    0.00      0      0      0       0     277 11.80
 1981 262    98    96   21.0      5   3.26   2720   3573   1497   1578   6293  10956    937  159.8  0.137   4662      6  0.000  0.000  0.014  0.000  0.000  0.000  0.000   1.49  32.10   0.43      0   4662    120.0   1.60   0.00   0.65    4.00    4.00    4.00    4.00    1.48    3.19    0.00    0.00    0.00    0.00      0      0      0       0     285 11.75
 1981 263    99    97   21.0      5   3.26   2720   3573   1597   1619   6293  11055    937  170.4  0.144   4762      6  0.000  0.000  0.016  0.000  0.000  0.000  0.000   1.46  33.53   0.43      0   4762    119.7   1.60   0.00   0.65    4.00    4.00    4.00    4.00    1.49    3.26    0.00    0.00    0.00    0.00      0      0      0       0     293 12.05
 1981 264   100    98   21.0      5   3.25   2720   3573   1696   1662   6293  11155    937  181.1  0.152   4862      6  0.000  0.000  0.017  0.000  0.000  0.000  0.000   1.44  34.89   0.44      0   4862    119.5   1.60   0.00   0.65    4.00    4.00    4.00    4.00    1.51    3.34    0.00    0.00    0.00    0.00      0      0      0       0     301 13.40
 1981 265   101    99   21.0      5   3.24   2720   3573   1796   1687   6293  11255    937  191.7  0.160   4962      6  0.000  0.000  0.019  0.000  0.000  0.000  0.000   1.42  36.20   0.44      0   4962    119.2   1.60   0.00   0.65    4.00    4.00    4.00    4.00    1.53    3.38    0.00    0.00    0.00    0.00      0      0      0       0     309 12.05
 1981 266   102   100   21.0      5   3.23   2720   3573   1896   1722   6293  11355    937  202.4  0.167   5061      6  0.000  0.000  0.021  0.000  0.000  0.000  0.000   1.39  37.46   0.45      0   5061    118.9   1.60   0.00   0.65    4.00    4.00    4.00    4.00    1.54    3.44    0.00    0.00    0.00    0.00      0      0      0       0     318 12.20
 1981 267   103   101   21.0      5   3.22   2720   3573   1996   1762   6293  11454    937  213.0  0.174   5161      6  0.000  0.000  0.023  0.000  0.000  0.000  0.000   1.37  38.67   0.45      0   5161    118.5   1.60   0.00   0.65    4.00    4.00    4.00    4.00    1.56    3.51    0.00    0.00    0.00    0.00      0      0      0       0     326 11.75
 1981 268   104   102   21.0      5   3.21   2720   3573   2096   1798   6293  11554    937  223.6  0.181   5261      6  0.000  0.000  0.025  0.000  0.000  0.000  0.000   1.35  39.83   0.46      0   5261    118.2   1.60   0.00   0.65    4.00    4.00    4.00    4.00    1.58    3.57    0.00    0.00    0.00    0.00      0      0      0       0     335 11.75
 1981 269   105   103   21.0      5   3.20   2720   3573   2195   1810   6293  11654    937  234.3  0.188   5361      6  0.000  0.000  0.028  0.000  0.000  0.000  0.000   1.33  40.95   0.46      0   5361    117.7   1.60   0.00   0.65    4.00    4.00    4.00    4.00    1.58    3.58    0.00    0.00    0.00    0.00      0      0      0       0     344 10.95
 1981 270   106   104   21.0      5   3.19   2720   3573   2295   1841   6293  11754    937  244.9  0.195   5461      6  0.000  0.000  0.030  0.000  0.000  0.000  0.000   1.31  42.03   0.46      0   5461    117.3   1.60   0.00   0.65    4.00    4.00    4.00    4.00    1.60    3.62    0.00    0.00    0.00    0.00      0      0      0       0     353 11.40
 1981 271   107   105   21.0      5   3.18   2720   3573   2395   1872   6293  11854    937  255.6  0.202   5560      6  0.000  0.000  0.033  0.000  0.000  0.000  0.000   1.28  43.07   0.47      0   5560    116.8   1.60   0.00   0.65    4.00    4.00    4.00    4.00    1.61    3.65    0.00    0.00    0.00    0.00      0      0      0       0     363 12.30
 1981 272   108   106   21.0      5   3.16   2720   3573   2495   1892   6293  11953    937  266.2  0.209   5660      6  0.000  0.000  0.036  0.000  0.000  0.000  0.000   1.26  44.07   0.47      0   5660    116.3   1.60   0.00   0.65    4.00    4.00    4.00    4.00    1.62    3.67    0.00    0.00    0.00    0.00      0      0      0       0     372 11.40
 1981 273   109   107   21.0      5   3.15   2720   3573   2594   1939   6293  12053    937  276.9  0.215   5760      6  0.000  0.000  0.038  0.000  0.000  0.000  0.000   1.24  45.04   0.48      0   5760    115.8   1.60   0.00   0.65    4.00    4.00    4.00    4.00    1.65    3.70    0.00    0.00    0.00    0.00      0      0      0       0     381 12.90
 1981 274   110   108   21.0      5   3.13   2720   3573   2694   1966   6293  12153    937  287.5  0.222   5860      6  0.000  0.000  0.041  0.000  0.000  0.000  0.000   1.22  45.98   0.48      0   5860    115.2   1.60   0.00   0.65    4.00    4.00    4.00    4.00    1.66    3.72    0.00    0.00    0.00    0.00      0      0      0       0     391 12.10
 1981 275   111   109   21.0      5   3.12   2720   3573   2794   1993   6293  12253    937  298.2  0.228   5960      6  0.000  0.000  0.044  0.000  0.000  0.000  0.000   1.20  46.88   0.49      0   5960    114.5   1.60   0.00   0.65    4.00    4.00    4.00    4.00    1.67    3.72    0.00    0.00    0.00    0.00      0      0      0       0     401 12.15
 1981 276   112   110   21.0      5   3.09   2720   3573   2894   2024   6293  12353    937  308.8  0.234   6059      6  0.000  0.000  0.047  0.000  0.000  0.000  0.000   1.18  47.76   0.49      0   6059    113.4   1.60   0.00   0.65    4.00    4.00    4.00    4.00    1.69    3.73    0.00    0.00    0.00    0.00      0      0      0       0     411 11.70
 1981 277   113   111   21.0      5   3.05   2720   3573   2994   2065   6293  12452    937  319.5  0.240   6159      6  0.000  0.000  0.050  0.000  0.000  0.000  0.000   1.16  48.60   0.49      0   6159    112.0   1.60   0.00   0.65    4.00    4.00    4.00    4.00    1.71    3.74    0.00    0.00    0.00    0.00      0      0      0       0     421 11.90
 1981 278   114   112   21.0      5   3.00   2720   3573   3093   2112   6293  12552    937  330.1  0.246   6259      6  0.000  0.000  0.054  0.000  0.000  0.000  0.000   1.13  49.42   0.50      0   6259    110.4   1.60   0.00   0.65    4.00    4.00    4.00    4.00    1.74    3.76    0.00    0.00    0.00    0.00      0      0      0       0     431 12.60
 1981 279   115   113   21.0      5   2.96   2720   3573   3193   2155   6293  12652    937  340.8  0.252   6359      6  0.000  0.000  0.057  0.000  0.000  0.000  0.000   1.11  50.22   0.50      0   6359    108.7   1.60   0.00   0.65    4.00    4.00    4.00    4.00    1.76    3.77    0.00    0.00    0.00    0.00      0      0      0       0     442 12.15
 1981 280   116   114   21.0      5   2.91   2720   3573   3293   2199   6293  12752    937  351.5  0.258   6458      6  0.000  0.000  0.061  0.000  0.000  0.000  0.000   1.09  50.99   0.51      0   6458    107.0   1.60   0.00   0.65    4.00    4.00    4.00    4.00    1.79    3.79    0.00    0.00    0.00    0.00      0      0      0       0     453 12.35
 1981 281   117   115   21.0      5   2.86   2720   3573   3393   2244   6293  12851    937  362.1  0.264   6558      6  0.000  0.000  0.064  0.000  0.000  0.000  0.000   1.07  51.73   0.51      0   6558    105.2   1.60   0.00   0.65    4.00    4.00    4.00    4.00    1.81    3.80    0.00    0.00    0.00    0.00      0      0      0       0     464 12.10
 1981 282   118   116   21.0      5   2.81   2720   3573   3493   2282   6293  12951    937  372.8  0.270   6658      6  0.000  0.000  0.068  0.000  0.000  0.000  0.000   1.05  52.46   0.51      0   6658    103.3   1.60   0.00   0.65    4.00    4.00    4.00    4.00    1.83    3.81    0.00    0.00    0.00    0.00      0      0      0       0     475 12.35
 1981 283   119   117   21.0      5   2.76   2720   3573   3592   2307   6293  13051    937  383.4  0.275   6758      6  0.000  0.000  0.072  0.000  0.000  0.000  0.000   1.03  53.16   0.52      0   6758    101.4   1.60   0.00   0.65    4.00    4.00    4.00    4.00    1.85    3.81    0.00    0.00    0.00    0.00      0      0      0       0     486 11.95
 1981 284   120   118   21.0      5   2.71   2720   3573   3692   2321   6293  13151    937  394.0  0.281   6858      6  0.000  0.000  0.077  0.000  0.000  0.000  0.000   1.01  53.84   0.52      0   6858     99.4   1.60   0.00   0.65    4.00    4.00    4.00    4.00    1.85    3.81    0.00    0.00    0.00    0.00      0      0      0       0     498 11.80
 1981 285   121   119   21.0      5   2.65   2720   3573   3792   2351   6293  13251    937  404.7  0.286   6957      6  0.000  0.000  0.082  0.000  0.000  0.000  0.000   0.99  54.50   0.53      0   6957     97.3   1.60   0.00   0.65    3.98    4.00    4.00    4.00    1.87    3.82    0.00    0.00    0.00    0.00      0      0      0       0     509 12.40
 1981 286   122   120   21.0      5   2.59   2720   3573   3892   2382   6293  13350    937  415.4  0.291   7057      6  0.000  0.000  0.087  0.000  0.000  0.000  0.000   0.97  55.14   0.53      0   7057     95.1   1.60   0.00   0.65    3.96    4.00    4.00    4.00    1.89    3.83    0.00    0.00    0.00    0.00      0      0      0       0     521 12.45
 1981 287   123   121   21.0      5   2.53   2720   3573   3991   2413   6293  13450    937  426.0  0.297   7157      6  0.000  0.000  0.093  0.000  0.000  0.000  0.000   0.95  55.77   0.53      0   7157     92.8   1.60   0.00   0.65    3.94    4.00    4.00    4.00    1.92    3.84    0.00    0.00    0.00    0.00      0      0      0       0     533 12.00
 1981 288   124   122   21.0      5   2.46   2720   3573   4091   2442   6293  13550    937  436.6  0.302   7257      6  0.000  0.000  0.099  0.000  0.000  0.000  0.000   0.93  56.38   0.54      0   7257     90.5   1.60   0.00   0.65    3.92    4.00    4.00    4.00    1.94    3.86    0.00    0.00    0.00    0.00      0      0      0       0     545 11.85
 1981 289   125   123   21.0      5   2.40   2720   3573   4191   2471   6293  13650    937  447.3  0.307   7357      6  0.000  0.000  0.105  0.000  0.000  0.000  0.000   0.91  56.97   0.54      0   7357     88.2   1.60   0.00   0.65    3.90    4.00    4.00    4.00    1.96    3.87    0.00    0.00    0.00    0.00      0      0      0       0     557 11.60
 1981 290   126   124   21.0      5   2.34   2720   3573   4291   2493   6293  13750    937  457.9  0.312   7456      6  0.000  0.331  0.113  0.000  0.000  0.000  0.000   0.89  57.55   0.54      0   7456     85.9   1.60   0.00   0.65    3.88    4.00    4.00    4.00    1.97    3.87    0.00    0.00    0.00    0.00      0      0      0       0     570 11.10
 1981 291   127   125   21.0      5   2.27   2720   3573   4361   2498   6293  13820    937  465.4  0.316   7526      6  0.544  0.696  0.120  0.000  0.000  0.000  0.000   0.87  57.94   0.54      0   7526     83.5   1.60   0.00   0.65    3.86    4.00    4.00    4.00    1.97    3.86    0.00    0.00    0.00    0.00      0      0      0       0     582 11.15
 1981 292   128   126   21.0      5   2.20   2720   3573   4426   2494   6293  13884    937  472.3  0.319   7591      6  0.634  0.757  0.125  0.000  0.000  0.000  0.000   0.86  58.30   0.55      0   7591     80.8   1.60   0.00   0.65    3.84    4.00    4.00    4.00    1.97    3.85    0.00    0.00    0.00    0.00      0      0      0       0     595 11.15
 1981 293   129   127   21.0      5   2.12   2720   3573   4485   2486   6293  13944    937  478.7  0.322   7651      6  0.737  0.825  0.129  0.000  0.000  0.000  0.000   0.84  58.62   0.55      0   7651     77.9   1.60   0.00   0.65    3.82    4.00    4.00    4.00    1.96    3.84    0.00    0.00    0.00    0.00      0      0      0       0     607 11.30
 1981 294   130   128   21.0      5   2.04   2720   3573   4542   2476   6293  14001    937  484.8  0.324   7708      6  0.776  0.851  0.132  0.000  0.000  0.000  0.000   0.83  58.93   0.55      0   7708     74.8   1.60   0.00   0.65    3.80    3.99    3.99    3.99    1.95    3.82    0.00    0.00    0.00    0.00      0      0      0       0     620 11.45
 1981 295   131   129   21.0      5   1.96   2720   3571   4600   2464   6292  14057    937  490.9  0.327   7765      6  0.771  0.848  0.136  0.000  0.000  0.000  0.000   0.82  59.23   0.55      0   7765     72.0   1.60   0.00   0.65    3.80    3.99    3.99    3.99    1.95    3.82    0.00    0.00    0.00    0.00      0      0      0       0     632 10.95
 1981 296   132   130   21.0      5   1.88   2720   3565   4655   2451   6285  14106    937  496.8  0.330   7820      6  0.811  0.875  0.140  0.000  0.000  0.000  0.000   0.81  59.52   0.55      0   7820     69.0   1.60   0.00   0.65    3.80    3.99    3.99    3.99    1.95    3.82    0.00    0.00    0.00    0.00      0      0      0       0     644 10.95
 1981 297   133   131   21.0      5   1.80   2720   3549   4708   2439   6270  14143    937  502.4  0.333   7873      6  0.860  0.907  0.144  0.000  0.000  0.000  0.000   0.79  59.79   0.56      0   7873     66.1   1.60   0.00   0.65    3.80    3.99    3.99    3.99    1.95    3.82    0.00    0.00    0.00    0.00      0      0      0       0     656 10.70
 1981 298   134   132   21.0      5   1.72   2720   3531   4759   2427   6251  14176    937  507.9  0.336   7925      6  0.876  0.918  0.147  0.000  0.000  0.000  0.000   0.78  60.06   0.56      0   7925     63.2   1.60   0.00   0.65    3.80    3.99    3.99    3.99    1.95    3.82    0.00    0.00    0.00    0.00      0      0      0       0     669 10.80
 1981 299   135   133   21.0      5   1.64   2720   3500   4808   2415   6221  14195    937  513.2  0.339   7974      6  0.927  0.952  0.150  0.000  0.000  0.000  0.000   0.78  60.30   0.56      0   7974     60.3   1.60   0.00   0.65    3.80    3.99    3.99    3.99    1.95    3.82    0.00    0.00    0.00    0.00      0      0      0       0     681  9.90
 1981 300   136   134   21.0      5   1.56   2720   3462   4855   2403   6183  14203    937  518.2  0.342   8020      6  0.966  0.978  0.152  0.000  0.000  0.000  0.000   0.77  60.53   0.56      0   8020     57.3   1.60   0.00   0.65    3.80    3.99    3.99    3.99    1.95    3.82    0.00    0.00    0.00    0.00      0      0      0       0     693 10.00
 1981 301   137   135   21.0      5   1.56   2720   3462   4855   2403   6183  14203    937  518.2  0.342   8020      6  0.965  0.977  0.153  0.000  0.000  0.000  0.000   0.77  60.53   0.56      0   8020     57.3   1.60   0.00   0.65    3.80    3.99    3.99    3.99    1.95    3.82    0.00    0.00    0.00    0.00      0      0      0       0     693 10.45
 1981 302   138   136   21.0      5   1.56   2720   3462   4855   2403   6183  14203    937  518.2  0.342   8020      6  0.965  0.977  0.153  0.000  0.000  0.000  0.000   0.77  60.53   0.56      0   8020     57.3   1.60   0.00   0.65    3.80    3.99    3.99    3.99    1.95    3.82    0.00    0.00    0.00    0.00      0      0      0       0     693 11.20
 1981 303   139   137   21.0      5   1.56   2720   3462   4855   2403   6183  14203    937  518.2  0.342   8020      6  0.972  0.982  0.153  0.000  0.000  0.000  0.000   0.77  60.53   0.56      0   8020     57.3   1.60   0.00   0.65    3.80    3.99    3.99    3.99    1.95    3.82    0.00    0.00    0.00    0.00      0      0      0       0     693 12.65
 1981 304   140   138   21.0      5   1.56   2720   3462   4855   2403   6183  14203    937  518.2  0.342   8020      6  0.974  0.983  0.153  0.000  0.000  0.000  0.000   0.77  60.53   0.56      0   8020     57.3   1.60   0.00   0.65    3.80    3.99    3.99    3.99    1.95    3.82    0.00    0.00    0.00    0.00      0      0      0       0     693 12.50
 1981 305   141   139   21.0      5   1.56   2720   3462   4855   2403   6183  14203    937  518.2  0.342   8020      6  0.000  0.983  0.153  0.000  0.000  0.000  0.000   0.77  60.53   0.56      0   8020     57.3   1.60   0.00   0.65    3.80    3.99    3.99    3.99    1.95    3.82    0.00    0.00    0.00    0.00      0      0      0       0     693  0.00

*DSSAT Cropping System Model Ver. 4.7.5.008 -release  JAN 07, 2021 20:14:37

*RUN   2        : ERiMA DCC1                MZCER047 ETMZmelk    1
 MODEL          : MZCER047 - Maize
 EXPERIMENT     : ETMZmelk SN MELKSSAL
 DATA PATH      : C:\IRI\Python_Dash\ET_DSS_hist\TEST\
 TREATMENT  1   : ERiMA DCC1                MZCER047
  
!                                                                                                                                                                                                                                      Root Dens. (cm/cm3) by soil depth (cm):
!                                                                                                                                                                                                                                      0-5    5-15   15-20   20-35   35-50   50-65   65-81   81-97  97-118 118-200
@YEAR DOY   DAS   DAP   L#SD   GSTD   LAID   LWAD   SWAD   GWAD   RWAD   VWAD   CWAD   G#AD   GWGD   HIAD   PWAD   P#AD   WSPD   WSGD   NSTD   EWSD  PST1A  PST2A   KSTD   LN%D   SH%D   HIPD   PWDD   PWTD     SLAD   CHTD   CWID   RDPD    RL1D    RL2D    RL3D    RL4D    RL5D    RL6D    RL7D    RL8D    RL9D   RL10D   CDAD   LDAD   SDAD   SNW0C   SNW1C  DTTD
 1982 166     2     0    0.0      0   0.00      0      0      0      0      0      0      0    0.0  0.000      0      0  0.000  0.000  0.000  0.000  0.000  0.000  0.000   0.00   0.00   0.00      0      0      0.0   0.00   0.00   0.03    0.00    0.00    0.00    0.00    0.00    0.00    0.00    0.00    0.00    0.00      0      0      0       0       0 14.06
 1982 167     3     1    0.0      0   0.00      0      0      0      0      0      0      0    0.0  0.000      0      0  0.000  0.000  0.000  0.000  0.000  0.000  0.000   0.00   0.00   0.00      0      0      0.0   0.00   0.00   0.04    0.00    0.00    0.00    0.00    0.00    0.00    0.00    0.00    0.00    0.00      0      0      0       0       0 11.92
 1982 168     4     2    0.0      0   0.00      0      0      0      0      0      0      0    0.0  0.000      0      0  0.000  0.000  0.000  0.000  0.000  0.000  0.000   0.00   0.00   0.00      0      0      0.0   0.00   0.00   0.07    0.00    0.00    0.00    0.00    0.00    0.00    0.00    0.00    0.00    0.00      0      0      0       0       0 17.28
 1982 169     5     3    0.0      0   0.00      0      0      0      0      0      0      0    0.0  0.000      0      0  0.000  0.000  0.000  0.000  0.000  0.000  0.000   0.00   0.00   0.00      0      0      0.0   0.00   0.00   0.09    0.00    0.00    0.00    0.00    0.00    0.00    0.00    0.00    0.00    0.00      0      0      0       0       0 14.07
 1982 170     6     4    0.0      0   0.00      0      0      0      0      0      0      0    0.0  0.000      0      0  0.000  0.000  0.000  0.000  0.000  0.000  0.000   0.00   0.00   0.00      0      0      0.0   0.00   0.00   0.11    0.00    0.00    0.00    0.00    0.00    0.00    0.00    0.00    0.00    0.00      0      0      0       0       0 11.50
 1982 171     7     5    0.0      0   0.00      0      0      0      0      0      0      0    0.0  0.000      0      0  0.000  0.000  0.000  0.000  0.000  0.000  0.000   0.00   0.00   0.00      0      0      0.0   0.00   0.00   0.13    0.00    0.00    0.00    0.00    0.00    0.00    0.00    0.00    0.00    0.00      0      0      0       0       0 13.69
 1982 172     8     6    2.0      1   0.00     12     12      0     12     24     24      0    0.0  0.000      0      0  0.000  0.000  0.012  0.000  0.000  0.000  0.000   4.40   0.00   0.00      0      0     27.2   0.00   0.00   0.14    0.24    0.09    0.00    0.00    0.00    0.00    0.00    0.00    0.00    0.00      0      0      0       0       0 14.63
 1982 173     9     7    2.0      1   0.01     12     12      0     12     24     24      0    0.0  0.000      0      0  0.000  0.000  0.011  0.000  0.000  0.000  0.000   4.40   0.00   0.00      0      0     53.9   0.00   0.00   0.16    0.24    0.10    0.00    0.00    0.00    0.00    0.00    0.00    0.00    0.00      0      0      0       0       0 14.78
 1982 174    10     8    3.0      1   0.01     12     12      0     13     24     24      0    0.0  0.000      0      0  0.000  0.000  0.005  0.000  0.000  0.000  0.000   4.40   0.00   0.00      0      0     82.0   0.01   0.00   0.17    0.25    0.10    0.00    0.00    0.00    0.00    0.00    0.00    0.00    0.00      0      0      0       0       0 13.85
 1982 175    11     9    3.0      1   0.01     12     12      0     14     24     24      0    0.0  0.000      0      0  0.000  0.000  0.000  0.000  0.000  0.000  0.000   4.40   0.00   0.00      0      0    113.7   0.01   0.00   0.19    0.25    0.11    0.01    0.00    0.00    0.00    0.00    0.00    0.00    0.00      0      0      0       0       0 14.08
 1982 176    12    10    3.0      1   0.02     12     12      0     15     24     24      0    0.0  0.000      0      0  0.000  0.000  0.000  0.000  0.000  0.000  0.000   4.40   0.00   0.00      0      0    148.8   0.01   0.00   0.20    0.25    0.13    0.03    0.00    0.00    0.00    0.00    0.00    0.00    0.00      0      0      0       0       0 14.39
 1982 177    13    11    4.0      1   0.03     12     12      0     17     24     24      0    0.0  0.000      0      0  0.000  0.000  0.000  0.000  0.000  0.000  0.000   4.40   0.00   0.00      0      0    260.0   0.02   0.00   0.21    0.25    0.15    0.05    0.00    0.00    0.00    0.00    0.00    0.00    0.00      0      0      0       0       0 13.20
 1982 178    14    12    4.0      1   0.05     14     12      0     19     26     26      0    0.0  0.000      0      0  0.000  0.093  0.000  0.000  0.000  0.000  0.000   4.09   0.00   0.00      0      0    333.6   0.03   0.00   0.22    0.25    0.17    0.08    0.00    0.00    0.00    0.00    0.00    0.00    0.00      0      0      0       0       0 14.33
 1982 179    15    13    5.0      1   0.06     19     12      0     20     31     31      0    0.0  0.000      0      0  0.000  0.195  0.000  0.000  0.000  0.000  0.000   3.47   0.00   0.00      0      0    311.3   0.03   0.00   0.23    0.26    0.18    0.09    0.00    0.00    0.00    0.00    0.00    0.00    0.00      0      0      0       0       0 13.60
 1982 180    16    14    5.0      1   0.08     29     12      0     21     41     41      0    0.0  0.000      0      0  0.000  0.000  0.000  0.000  0.000  0.000  0.000   3.22   0.00   0.00      0      0    287.3   0.05   0.00   0.25    0.27    0.20    0.10    0.00    0.00    0.00    0.00    0.00    0.00    0.00      0      0      0       0       0 15.00
 1982 181    17    15    5.0      1   0.11     40     12      0     24     52     52      0    0.0  0.000      0      0  0.000  0.000  0.000  0.000  0.000  0.000  0.000   3.27   0.00   0.00      0      0    269.3   0.06   0.00   0.26    0.30    0.22    0.12    0.00    0.00    0.00    0.00    0.00    0.00    0.00      0      0      0       0       0 14.48
 1982 182    18    16    6.0      1   0.13     51     12      0     26     63     63      0    0.0  0.000      0      0  0.000  0.000  0.000  0.000  0.000  0.000  0.000   3.32   0.00   0.00      0      0    255.2   0.07   0.00   0.27    0.32    0.25    0.15    0.00    0.00    0.00    0.00    0.00    0.00    0.00      0      0      0       0       0 13.79
 1982 183    19    17    6.0      1   0.16     66     12      0     31     78     78      0    0.0  0.000      0      0  0.000  0.000  0.000  0.000  0.000  0.000  0.000   3.27   0.00   0.00      0      0    242.2   0.09   0.00   0.28    0.37    0.29    0.19    0.01    0.00    0.00    0.00    0.00    0.00    0.00      0      0      0       0       1 14.77
 1982 184    20    18    7.0      1   0.19     84     12      0     37     96     96      0    0.0  0.000      0      0  0.000  0.000  0.000  0.000  0.000  0.000  0.000   3.29   0.00   0.00      0      0    231.0   0.11   0.00   0.29    0.42    0.35    0.23    0.01    0.00    0.00    0.00    0.00    0.00    0.00      0      0      0       0       1 14.43
 1982 185    21    19    7.0      1   0.23    103     12      0     45    115    115      0    0.0  0.000      0      0  0.000  0.000  0.000  0.000  0.000  0.000  0.000   3.28   0.00   0.00      0      0    221.1   0.13   0.00   0.30    0.50    0.42    0.29    0.02    0.00    0.00    0.00    0.00    0.00    0.00      0      0      0       0       1 14.40
 1982 186    22    20    7.0      1   0.27    129     12      0     54    141    141      0    0.0  0.000      0      0  0.000  0.000  0.000  0.000  0.000  0.000  0.000   3.19   0.00   0.00      0      0    211.1   0.15   0.00   0.31    0.58    0.50    0.37    0.03    0.00    0.00    0.00    0.00    0.00    0.00      0      0      0       0       1 16.26
 1982 187    23    21    8.0      2   0.33    149     12      0     69    161    161      0    0.0  0.000      0      0  0.000  0.000  0.000  0.000  0.000  0.000  0.000   3.39   0.00   0.00      0      0    218.9   0.18   0.00   0.34    0.71    0.63    0.48    0.05    0.00    0.00    0.00    0.00    0.00    0.00      0      0      0       0       1 15.21
 1982 188    24    22    8.0      2   0.38    183     12      0     77    195    195      0    0.0  0.000      0      0  0.000  0.000  0.003  0.000  0.000  0.000  0.000   3.23   0.00   0.00      0      0    209.9   0.21   0.00   0.36    0.79    0.70    0.54    0.07    0.00    0.00    0.00    0.00    0.00    0.00      0      0      0       0       2 14.87
 1982 189    25    23    8.0      2   0.45    223     12      0     92    235    235      0    0.0  0.000      0      0  0.000  0.000  0.000  0.000  0.000  0.000  0.000   3.17   0.00   0.00      0      0    201.4   0.25   0.00   0.37    0.93    0.83    0.65    0.10    0.00    0.00    0.00    0.00    0.00    0.00      0      0      0       0       2 15.63
 1982 190    26    24    9.0      2   0.51    265     12      0    103    277    277      0    0.0  0.000      0      0  0.000  0.000  0.000  0.000  0.000  0.000  0.000   4.05   0.00   0.00      0      0    194.4   0.29   0.00   0.38    1.02    0.92    0.73    0.12    0.00    0.00    0.00    0.00    0.00    0.00      0      0      0       0       3 14.20
 1982 191    27    25    9.0      2   0.58    306     12      0    116    318    318      0    0.0  0.000      0      0  0.000  0.000  0.000  0.000  0.000  0.000  0.000   3.96   0.00   0.00      0      0    188.6   0.32   0.00   0.39    1.08    1.05    0.82    0.15    0.00    0.00    0.00    0.00    0.00    0.00      0      0      0       0       3 13.00
 1982 192    28    26   10.0      3   0.66    365     12      0    142    377    377      0    0.0  0.000      0      0  0.000  0.000  0.000  0.000  0.000  0.000  0.000   3.88   0.00   0.00      0      0    181.5   0.37   0.00   0.40    1.07    1.34    1.06    0.21    0.00    0.00    0.00    0.00    0.00    0.00      0      0      0       0       4 16.27
 1982 193    29    27   10.0      3   0.74    417     13      0    170    430    430      0    0.0  0.000      0      0  0.000  0.084  0.000  0.000  0.000  0.000  0.000   3.74   0.00   0.00      0      0    177.2   0.41   0.00   0.40    1.07    1.66    1.31    0.28    0.00    0.00    0.00    0.00    0.00    0.00      0      0      0       0       4 14.26
 1982 194    30    28   10.0      3   0.81    467     14      0    196    481    481      0    0.0  0.000      0      0  0.000  0.135  0.000  0.000  0.000  0.000  0.000   3.67   0.00   0.00      0      0    173.5   0.45   0.00   0.41    1.06    1.97    1.54    0.35    0.00    0.00    0.00    0.00    0.00    0.00      0      0      0       0       5 13.41
 1982 195    31    29   11.0      3   0.89    525     16      0    214    541    541      0    0.0  0.000      0      0  0.000  0.030  0.000  0.000  0.000  0.000  0.000   3.63   0.00   0.00      0      0    169.8   0.49   0.00   0.42    1.06    2.18    1.69    0.39    0.00    0.00    0.00    0.00    0.00    0.00      0      0      0       0       6 12.61
 1982 196    32    30   11.0      3   0.96    573     19      0    250    592    592      0    0.0  0.000      0      0  0.000  0.213  0.000  0.000  0.000  0.000  0.000   3.55   0.00   0.00      0      0    167.1   0.53   0.00   0.43    1.05    2.60    1.99    0.48    0.00    0.00    0.00    0.00    0.00    0.00      0      0      0       0       7 12.00
 1982 197    33    31   11.0      3   1.04    633     24      0    282    657    657      0    0.0  0.000      0      0  0.000  0.172  0.000  0.000  0.000  0.000  0.000   3.53   0.00   0.00      0      0    164.0   0.58   0.00   0.44    1.04    2.98    2.26    0.55    0.01    0.00    0.00    0.00    0.00    0.00      0      0      0       0       9 13.10
 1982 198    34    32   12.0      3   1.14    714     32      0    300    746    746      0    0.0  0.000      0      0  0.000  0.027  0.000  0.000  0.000  0.000  0.000   3.52   0.00   0.00      0      0    160.4   0.63   0.00   0.44    1.04    3.19    2.42    0.59    0.01    0.00    0.00    0.00    0.00    0.00      0      0      0       0      10 12.05
 1982 199    35    33   12.0      3   1.23    784     41      0    309    825    825      0    0.0  0.000      0      0  0.000  0.089  0.000  0.000  0.000  0.000  0.000   3.45   0.00   0.00      0      0    157.6   0.68   0.00   0.45    1.03    3.30    2.50    0.61    0.01    0.00    0.00    0.00    0.00    0.00      0      0      0       0      11 10.85
 1982 200    36    34   12.0      3   1.27    822     48      0    326    870    870      0    0.0  0.000      0      0  0.231  0.488  0.000  0.000  0.000  0.000  0.000   3.43   0.00   0.00      0      0    154.3   0.70   0.00   0.46    1.03    3.49    2.66    0.65    0.01    0.00    0.00    0.00    0.00    0.00      0      0      0       0      13 10.55
 1982 201    37    35   12.0      3   1.26    844     52      0    340    896    896      0    0.0  0.000      0      0  0.617  0.745  0.000  0.000  0.000  0.000  0.000   3.50   0.00   0.00      0      0    148.9   0.70   0.00   0.46    1.02    3.63    2.81    0.67    0.02    0.00    0.00    0.00    0.00    0.00      0      0      0       0      15 11.85
 1982 202    38    36   13.0      3   1.24    863     56      0    349    920    920      0    0.0  0.000      0      0  0.669  0.780  0.000  0.000  0.000  0.000  0.000   3.48   0.00   0.00      0      0    143.4   0.70   0.00   0.47    1.15    3.74    2.83    0.68    0.02    0.00    0.00    0.00    0.00    0.00      0      0      0       0      16 12.10
 1982 203    39    37   13.0      3   1.31    920     72      0    352    992    992      0    0.0  0.000      0      0  0.000  0.000  0.000  0.000  0.000  0.000  0.000   3.23   0.00   0.00      0      0    142.2   0.73   0.00   0.48    1.19    3.77    2.83    0.67    0.02    0.00    0.00    0.00    0.00    0.00      0      0      0       0      16 10.20
 1982 204    40    38   13.0      3   1.41   1007     99      0    377   1105   1105      0    0.0  0.000      0      0  0.000  0.000  0.000  0.000  0.000  0.000  0.000   3.28   0.00   0.00      0      0    140.5   0.78   0.00   0.48    1.50    4.00    2.90    0.69    0.02    0.00    0.00    0.00    0.00    0.00      0      0      0       0      18 11.65
 1982 205    41    39   14.0      3   1.52   1096    131      0    399   1227   1227      0    0.0  0.000      0      0  0.000  0.000  0.000  0.000  0.000  0.000  0.000   3.24   0.00   0.00      0      0    138.9   0.84   0.00   0.49    1.72    4.00    3.06    0.69    0.03    0.00    0.00    0.00    0.00    0.00      0      0      0       0      20 11.85
 1982 206    42    40   14.0      3   1.63   1188    169      0    407   1357   1357      0    0.0  0.000      0      0  0.000  0.000  0.000  0.000  0.000  0.000  0.000   3.20   0.00   0.00      0      0    137.3   0.91   0.00   0.50    1.80    4.00    3.12    0.69    0.03    0.00    0.00    0.00    0.00    0.00      0      0      0       0      22 12.05
 1982 207    43    41   14.0      3   1.74   1284    214      0    427   1497   1497      0    0.0  0.000      0      0  0.000  0.000  0.000  0.000  0.000  0.000  0.000   3.16   0.00   0.00      0      0    135.8   0.97   0.00   0.51    1.98    4.00    3.29    0.71    0.03    0.00    0.00    0.00    0.00    0.00      0      0      0       0      24 12.20
 1982 208    44    42   15.0      3   1.86   1385    267      0    449   1652   1652      0    0.0  0.000      0      0  0.000  0.000  0.000  0.000  0.000  0.000  0.000   3.12   0.00   0.00      0      0    134.3   1.03   0.00   0.52    2.16    4.00    3.47    0.73    0.04    0.00    0.00    0.00    0.00    0.00      0      0      0       0      26 12.80
 1982 209    45    43   15.0      3   1.97   1485    327      0    474   1812   1812      0    0.0  0.000      0      0  0.000  0.000  0.000  0.000  0.000  0.000  0.000   3.08   0.00   0.00      0      0    132.8   1.09   0.00   0.52    2.32    4.00    3.69    0.77    0.04    0.00    0.00    0.00    0.00    0.00      0      0      0       0      28 12.45
 1982 210    46    44   15.0      3   2.09   1586    394      0    496   1980   1980      0    0.0  0.000      0      0  0.000  0.000  0.000  0.000  0.000  0.000  0.000   3.04   0.00   0.00      0      0    131.5   1.16   0.00   0.53    2.43    4.00    3.91    0.82    0.05    0.00    0.00    0.00    0.00    0.00      0      0      0       0      31 12.40
 1982 211    47    45   16.0      3   2.18   1676    460      0    502   2136   2136      0    0.0  0.000      0      0  0.000  0.000  0.000  0.000  0.000  0.000  0.000   2.99   0.00   0.00      0      0    130.4   1.21   0.00   0.54    2.52    4.00    3.95    0.83    0.05    0.00    0.00    0.00    0.00    0.00      0      0      0       0      33 11.70
 1982 212    48    46   16.0      3   2.29   1774    539      0    510   2313   2313      0    0.0  0.000      0      0  0.000  0.000  0.000  0.000  0.000  0.000  0.000   2.96   0.00   0.00      0      0    129.2   1.27   0.00   0.55    2.64    4.00    3.99    0.85    0.05    0.00    0.00    0.00    0.00    0.00      0      0      0       0      36 12.10
 1982 213    49    47   16.0      3   2.38   1860    615      0    516   2474   2474      0    0.0  0.000      0      0  0.000  0.000  0.000  0.000  0.000  0.000  0.000   2.92   0.00   0.00      0      0    128.2   1.32   0.00   0.55    2.73    4.00    4.00    0.87    0.05    0.00    0.00    0.00    0.00    0.00      0      0      0       0      38 11.40
 1982 214    50    48   16.0      3   2.46   1928    680      0    521   2609   2609      0    0.0  0.000      0      0  0.000  0.000  0.000  0.000  0.000  0.000  0.000   2.87   0.00   0.00      0      0    127.5   1.36   0.00   0.56    2.80    4.00    4.00    0.88    0.05    0.00    0.00    0.00    0.00    0.00      0      0      0       0      41 10.60
 1982 215    51    49   17.0      3   2.57   2034    785      0    537   2819   2823      0    0.0  0.000      4      0  0.000  0.000  0.000  0.000  0.000  0.000  0.000   2.87   0.00   0.00      0      4    126.4   1.43   0.00   0.57    2.98    4.00    4.00    0.92    0.06    0.00    0.00    0.00    0.00    0.00      0      0      0       0      43 12.25
 1982 216    52    50   17.0      3   2.77   2228    836      0    548   3064   3069      0    0.0  0.000      5      0  0.000  0.000  0.000  0.000  0.000  0.000  0.000   2.84   0.00   0.00      0      5    124.5   1.54   0.00   0.58    3.11    4.00    4.00    0.94    0.06    0.00    0.00    0.00    0.00    0.00      0      0      0       0      46 12.50
 1982 217    53    51   17.0      3   2.89   2341    943      0    558   3284   3293      0    0.0  0.000      9      0  0.000  0.000  0.000  0.000  0.000  0.000  0.000   2.80   0.00   0.00      0      9    123.4   1.60   0.00   0.58    3.23    4.00    4.00    0.97    0.06    0.01    0.00    0.00    0.00    0.00      0      0      0       0      49 13.00
 1982 218    54    52   18.0      3   2.98   2433   1058      0    567   3491   3505      0    0.0  0.000     14      0  0.000  0.000  0.000  0.000  0.000  0.000  0.000   2.76   0.00   0.00      0     14    122.6   1.60   0.00   0.59    3.32    4.00    4.00    0.99    0.07    0.01    0.00    0.00    0.00    0.00      0      0      0       0      52 12.05
 1982 219    55    53   18.0      3   3.06   2509   1172      0    575   3681   3701      0    0.0  0.000     20      0  0.000  0.000  0.000  0.000  0.000  0.000  0.000   2.72   0.00   0.01      0     20    122.0   1.60   0.00   0.60    3.39    4.00    4.00    1.01    0.08    0.01    0.00    0.00    0.00    0.00      0      0      0       0      55 11.55
 1982 220    56    54   18.0      3   3.13   2578   1286      0    583   3864   3891      0    0.0  0.000     28      0  0.000  0.000  0.000  0.000  0.000  0.000  0.000   2.68   0.00   0.01      0     28    121.4   1.60   0.00   0.61    3.41    4.00    4.00    1.04    0.09    0.03    0.00    0.00    0.00    0.00      0      0      0       0      57 10.90
 1982 221    57    55   19.0      3   3.19   2635   1393      0    589   4028   4063      0    0.0  0.000     35      0  0.000  0.000  0.000  0.000  0.000  0.000  0.000   2.61   0.00   0.01      0     35    121.0   1.60   0.00   0.61    3.41    4.00    4.00    1.07    0.14    0.06    0.00    0.00    0.00    0.00      0      0      0       0      60 11.85
 1982 222    58    56   19.0      3   3.26   2707   1530      0    599   4238   4290      0    0.0  0.000     52      0  0.000  0.000  0.000  0.000  0.000  0.000  0.000   2.50   0.00   0.01      0     52    120.4   1.60   0.00   0.62    3.42    4.00    4.00    1.08    0.20    0.11    0.00    0.00    0.00    0.00      0      0      0       0      63 11.90
 1982 223    59    57   19.0      3   3.33   2779   1675      0    609   4454   4529      0    0.0  0.000     75      0  0.000  0.000  0.000  0.000  0.000  0.000  0.000   2.40   0.00   0.02      0     75    119.9   1.60   0.00   0.63    3.43    4.00    4.00    1.09    0.25    0.17    0.00    0.00    0.00    0.00      0      0      0       0      66 12.45
 1982 224    60    58   20.0      3   3.39   2839   1800      0    618   4639   4736      0    0.0  0.000     97      0  0.000  0.000  0.000  0.000  0.000  0.000  0.000   2.32   0.00   0.02      0     97    119.4   1.60   0.00   0.64    3.44    4.00    4.00    1.10    0.30    0.23    0.00    0.00    0.00    0.00      0      0      0       0      69 12.05
 1982 225    61    59   20.0      3   3.44   2899   1924      0    627   4823   4952      0    0.0  0.000    129      0  0.000  0.000  0.013  0.000  0.000  0.000  0.000   2.25   0.00   0.03      0    129    118.8   1.60   0.00   0.64    3.45    4.00    4.00    1.11    0.34    0.29    0.00    0.00    0.00    0.00      0      0      0       0      72 11.75
 1982 226    62    60   20.0      3   3.47   2934   2003      0    631   4936   5081      0    0.0  0.000    145      0  0.000  0.000  0.025  0.000  0.000  0.000  0.000   2.21   0.00   0.03      0    145    118.2   1.60   0.00   0.65    3.45    4.00    4.00    1.11    0.35    0.32    0.00    0.00    0.00    0.00      0      0      0       0      76 10.35
 1982 227    63    61   20.0      3   3.50   2987   2109      0    642   5096   5287      0    0.0  0.000    191      0  0.000  0.000  0.036  0.000  0.000  0.000  0.000   2.15   0.00   0.04      0    191    117.3   1.60   0.00   0.65    3.47    4.00    4.00    1.13    0.39    0.40    0.00    0.00    0.00    0.00      0      0      0       0      79 11.65
 1982 228    64    62   21.0      3   3.54   3041   2212      0    651   5253   5499      0    0.0  0.000    246      0  0.000  0.000  0.039  0.000  0.000  0.000  0.000   2.10   0.00   0.04      0    246    116.4   1.60   0.00   0.65    3.49    4.00    4.00    1.14    0.41    0.45    0.00    0.00    0.00    0.00      0      0      0       0      82 12.25
 1982 229    65    63   21.0      3   3.57   3089   2299      0    658   5389   5690      0    0.0  0.000    302      0  0.000  0.000  0.046  0.000  0.000  0.000  0.000   2.05   0.00   0.05      0    302    115.4   1.60   0.00   0.65    3.51    4.00    4.00    1.16    0.43    0.50    0.00    0.00    0.00    0.00      0      0      0       0      85 11.85
 1982 230    66    64   21.0      3   3.59   3140   2361      0    691   5502   5891      0    0.0  0.000    389      0  0.000  0.000  0.053  0.000  0.000  0.000  0.000   2.02   0.00   0.07      0    389    114.4   1.60   0.00   0.65    3.62    4.00    4.00    1.23    0.47    0.67    0.00    0.00    0.00    0.00      0      0      0       0      88 12.00
 1982 231    67    65   21.0      3   3.60   3176   2422      0    695   5598   6031      0    0.0  0.000    433      0  0.000  0.000  0.057  0.000  0.000  0.000  0.000   1.99   0.00   0.07      0    433    113.4   1.60   0.00   0.65    3.64    4.00    4.00    1.24    0.48    0.70    0.00    0.00    0.00    0.00      0      0      0       0      92 11.15
 1982 232    68    66   21.0      3   3.62   3226   2466      0    718   5692   6227      0    0.0  0.000    536      0  0.000  0.000  0.060  0.000  0.000  0.000  0.000   1.97   0.00   0.09      0    536    112.2   1.60   0.00   0.65    3.73    4.00    4.00    1.30    0.49    0.80    0.00    0.00    0.00    0.00      0      0      0       0      95 12.00
 1982 233    69    67   21.0      3   3.64   3275   2487      0    750   5763   6420      0    0.0  0.000    658      0  0.000  0.000  0.061  0.000  0.000  0.000  0.000   1.95   0.00   0.10      0    658    111.1   1.60   0.00   0.65    3.87    4.00    4.00    1.38    0.51    0.94    0.00    0.00    0.00    0.00      0      0      0       0      99 11.85
 1982 234    70    68   21.0      3   3.66   3327   2493      0    787   5819   6622      0    0.0  0.000    803      0  0.000  0.000  0.062  0.000  0.000  0.000  0.000   1.94   0.00   0.12      0    803    110.1   1.60   0.00   0.65    4.00    4.00    4.00    1.49    0.53    1.08    0.00    0.00    0.00    0.00      0      0      0       0     103 12.35
 1982 235    71    69   21.0      3   3.68   3378   2499      0    812   5877   6823      0    0.0  0.000    946      0  0.000  0.000  0.060  0.000  0.000  0.000  0.000   1.93   0.00   0.14      0    946    109.0   1.60   0.00   0.65    4.00    4.00    4.00    1.56    0.54    1.18    0.00    0.00    0.00    0.00      0      0      0       0     107 12.25
 1982 236    72    70   21.0      4   3.66   3343   2594      0    817   5937   7000      0    0.0  0.000   1063      0  0.000  0.000  0.058  0.000  0.000  0.000  0.000   1.92   0.00   0.15      0   1063    109.4   1.60   0.00   0.65    4.00    4.00    4.00    1.58    0.54    1.20    0.00    0.00    0.00    0.00      0      0      0       0     111 11.55
 1982 237    73    71   21.0      4   3.63   3306   2688      0    823   5994   7193      0    0.0  0.000   1199      0  0.000  0.000  0.054  0.000  0.000  0.000  0.000   1.91   0.00   0.17      0   1199    109.8   1.60   0.00   0.65    4.00    4.00    4.00    1.60    0.54    1.23    0.00    0.00    0.00    0.00      0      0      0       0     115 12.50
 1982 238    74    72   21.0      4   3.61   3266   2772      0    829   6038   7378      0    0.0  0.000   1340      0  0.000  0.000  0.051  0.000  0.000  0.000  0.000   1.90   0.00   0.18      0   1340    110.5   1.60   0.00   0.65    4.00    4.00    4.00    1.62    0.54    1.25    0.00    0.00    0.00    0.00      0      0      0       0     119 12.25
 1982 239    75    73   21.0      4   3.59   3225   2849      0    835   6074   7565      0    0.0  0.000   1491      0  0.000  0.000  0.048  0.000  0.000  0.000  0.000   1.90   0.00   0.20      0   1491    111.2   1.60   0.00   0.65    4.00    4.00    4.00    1.64    0.54    1.27    0.00    0.00    0.00    0.00      0      0      0       0     123 12.65
 1982 240    76    74   21.0      4   3.57   3181   2925      0    841   6106   7767      0    0.0  0.000   1660      0  0.000  0.000  0.043  0.000  0.000  0.000  0.000   1.89   0.00   0.21      0   1660    112.1   1.60   0.00   0.65    4.00    4.00    4.00    1.66    0.55    1.29    0.00    0.00    0.00    0.00      0      0      0       0     127 12.10
 1982 241    77    75   21.0      4   3.55   3136   3005      0    849   6141   8007      0    0.0  0.000   1866      0  0.000  0.000  0.038  0.000  0.000  0.000  0.000   1.89   0.00   0.23      0   1866    113.2   1.60   0.00   0.65    4.00    4.00    4.00    1.69    0.55    1.32    0.00    0.00    0.00    0.00      0      0      0       0     131 12.55
[...]
 2014 242    78    76   20.0      4   3.55   2737   2994      0    600   5731   8294      0    0.0  0.000   2563      0  0.000  0.000  0.000  0.000  0.000  0.000  0.000   2.08   0.00   0.31      0   2563    129.7   1.60   0.00   0.65    3.20    3.11    2.73    1.41    1.31    0.97    0.00    0.00    0.00    0.00      0      0      0       0      92 13.50
 2014 243    79    77   20.0      4   3.54   2680   3023      0    607   5703   8449      0    0.0  0.000   2746      0  0.000  0.000  0.000  0.000  0.000  0.000  0.000   2.09   0.00   0.33      0   2746    132.0   1.60   0.00   0.65    3.21    3.13    2.75    1.42    1.32    1.00    0.00    0.00    0.00    0.00      0      0      0       0      92 13.40
 2014 244    80    78   20.0      4   3.53   2621   3052      0    613   5673   8608      0    0.0  0.000   2935      0  0.000  0.000  0.000  0.000  0.000  0.000  0.000   2.10   0.00   0.34      0   2935    134.5   1.60   0.00   0.65    3.24    3.15    2.77    1.44    1.32    1.04    0.00    0.00    0.00    0.00      0      0      0       0      92 12.60
 2014 245    81    79   20.0      5   3.47   2621   3052     97    641   5673   8705    908   10.7  0.011   3032      6  0.000  0.000  0.000  0.000  0.000  0.000  0.000   2.07   3.19   0.35      0   3032    132.4   1.60   0.00   0.65    3.35    3.26    2.89    1.51    1.35    1.15    0.00    0.00    0.00    0.00      0      0      0       0      92 11.55
 2014 246    82    80   20.0      5   3.47   2621   3052    193    682   5673   8801    908   21.3  0.022   3129      6  0.000  0.000  0.000  0.000  0.000  0.000  0.000   2.05   6.18   0.36      0   3129    132.2   1.60   0.00   0.65    3.50    3.42    3.05    1.60    1.41    1.33    0.00    0.00    0.00    0.00      0      0      0       0      92 11.95
 2014 247    83    81   20.0      5   3.46   2621   3052    290    718   5673   8898    908   32.0  0.033   3225      6  0.000  0.000  0.000  0.000  0.000  0.000  0.000   2.02   9.00   0.36      0   3225    132.0   1.60   0.00   0.65    3.63    3.55    3.18    1.67    1.47    1.49    0.00    0.00    0.00    0.00      0      0      0       0      92 12.60
 2014 248    84    82   20.0      5   3.45   2621   3052    387    760   5673   8995    908   42.6  0.043   3322      6  0.000  0.000  0.000  0.000  0.000  0.000  0.000   1.99  11.65   0.37      0   3322    131.8   1.60   0.00   0.65    3.78    3.69    3.32    1.76    1.54    1.68    0.00    0.00    0.00    0.00      0      0      0       0      92 13.05
 2014 249    85    83   20.0      5   3.45   2621   3052    484    802   5673   9092    908   53.3  0.053   3419      6  0.000  0.000  0.000  0.000  0.000  0.000  0.000   1.96  14.15   0.38      0   3419    131.5   1.60   0.00   0.65    3.91    3.83    3.46    1.84    1.64    1.87    0.00    0.00    0.00    0.00      0      0      0       0      92 12.50
 2014 250    86    84   20.0      5   3.44   2621   3052    580    840   5673   9188    908   63.9  0.063   3516      6  0.000  0.000  0.000  0.000  0.000  0.000  0.000   1.93  16.51   0.38      0   3516    131.2   1.60   0.00   0.65    4.00    3.95    3.58    1.91    1.73    2.06    0.00    0.00    0.00    0.00      0      0      0       0      92 12.75
 2014 251    87    85   20.0      5   3.43   2621   3052    677    885   5673   9285    908   74.6  0.073   3612      6  0.000  0.000  0.000  0.000  0.000  0.000  0.000   1.90  18.75   0.39      0   3612    130.8   1.60   0.00   0.65    4.00    4.00    3.84    1.98    1.83    2.26    0.00    0.00    0.00    0.00      0      0      0       0      92 12.75
 2014 252    88    86   20.0      5   3.42   2621   3052    774    930   5673   9382    908   85.2  0.082   3709      6  0.000  0.000  0.000  0.000  0.000  0.000  0.000   1.87  20.87   0.40      0   3709    130.4   1.60   0.00   0.65    4.00    4.00    4.00    2.09    1.93    2.43    0.00    0.00    0.00    0.00      0      0      0       0      92 12.80
 2014 253    89    87   20.0      5   3.41   2621   3052    871    967   5673   9479    908   95.9  0.092   3806      6  0.000  0.000  0.000  0.000  0.000  0.000  0.000   1.84  22.88   0.40      0   3806    130.0   1.60   0.00   0.65    4.00    4.00    4.00    2.22    2.00    2.55    0.00    0.00    0.00    0.00      0      0      0       0      92 12.75
 2014 254    90    88   20.0      5   3.40   2621   3052    967   1006   5673   9575    908  106.5  0.101   3903      6  0.000  0.000  0.000  0.000  0.000  0.000  0.000   1.72  24.79   0.41      0   3903    129.6   1.60   0.00   0.65    4.00    4.00    4.00    2.38    2.08    2.66    0.00    0.00    0.00    0.00      0      0      0       0      97 12.55
 2014 255    91    89   20.0      5   3.38   2621   3052   1064   1036   5673   9672    908  117.2  0.110   3999      6  0.000  0.000  0.000  0.000  0.000  0.000  0.000   1.69  26.61   0.41      0   3999    129.1   1.60   0.00   0.65    4.00    4.00    4.00    2.52    2.13    2.74    0.00    0.00    0.00    0.00      0      0      0       0     102 12.35
 2014 256    92    90   20.0      5   3.37   2621   3052   1161   1078   5673   9769    908  127.8  0.119   4096      6  0.000  0.000  0.000  0.000  0.000  0.000  0.000   1.67  28.34   0.42      0   4096    128.5   1.60   0.00   0.65    4.00    4.00    4.00    2.74    2.21    2.85    0.00    0.00    0.00    0.00      0      0      0       0     107 12.85
 2014 257    93    91   20.0      5   3.35   2621   3052   1258   1111   5673   9866    908  138.5  0.127   4193      6  0.000  0.000  0.000  0.000  0.000  0.000  0.000   1.65  30.00   0.42      0   4193    128.0   1.60   0.00   0.65    4.00    4.00    4.00    2.78    2.32    3.03    0.00    0.00    0.00    0.00      0      0      0       0     113 12.15
 2014 258    94    92   20.0      5   3.34   2621   3052   1354   1145   5673   9962    908  149.1  0.136   4290      6  0.000  0.000  0.000  0.000  0.000  0.000  0.000   1.62  31.58   0.43      0   4290    127.3   1.60   0.00   0.65    4.00    4.00    4.00    2.83    2.43    3.21    0.00    0.00    0.00    0.00      0      0      0       0     118 12.60
 2014 259    95    93   20.0      5   3.32   2621   3052   1451   1173   5673  10059    908  159.8  0.144   4386      6  0.000  0.000  0.000  0.000  0.000  0.000  0.000   1.60  33.08   0.44      0   4386    126.6   1.60   0.00   0.65    4.00    4.00    4.00    2.86    2.52    3.37    0.00    0.00    0.00    0.00      0      0      0       0     124 12.60
 2014 260    96    94   20.0      5   3.30   2621   3052   1548   1216   5673  10156    908  170.4  0.152   4483      6  0.000  0.000  0.000  0.000  0.000  0.000  0.000   1.58  34.53   0.44      0   4483    125.9   1.60   0.00   0.65    4.00    4.00    4.00    2.92    2.66    3.59    0.00    0.00    0.00    0.00      0      0      0       0     130 13.25
 2014 261    97    95   20.0      5   3.28   2621   3052   1645   1260   5673  10253    908  181.1  0.160   4580      6  0.000  0.000  0.000  0.000  0.000  0.000  0.000   1.56  35.91   0.45      0   4580    125.1   1.60   0.00   0.65    4.00    4.00    4.00    2.98    2.80    3.82    0.00    0.00    0.00    0.00      0      0      0       0     136 12.85
 2014 262    98    96   20.0      5   3.25   2621   3052   1741   1288   5673  10349    908  191.7  0.168   4677      6  0.000  0.000  0.000  0.000  0.000  0.000  0.000   1.54  37.24   0.45      0   4677    124.2   1.60   0.00   0.65    4.00    4.00    4.00    3.02    2.89    3.96    0.00    0.00    0.00    0.00      0      0      0       0     142 12.95
 2014 263    99    97   20.0      5   3.23   2621   3052   1838   1316   5673  10446    908  202.4  0.176   4773      6  0.000  0.000  0.000  0.000  0.000  0.000  0.000   1.51  38.51   0.46      0   4773    123.2   1.60   0.00   0.65    4.00    4.00    4.00    3.06    2.98    4.00    0.00    0.00    0.00    0.00      0      0      0       0     149 13.50
 2014 264   100    98   20.0      5   3.20   2621   3052   1935   1356   5673  10543    908  213.0  0.184   4870      6  0.000  0.000  0.000  0.000  0.000  0.000  0.000   1.49  39.73   0.46      0   4870    122.2   1.60   0.00   0.65    4.00    4.00    4.00    3.12    3.11    4.00    0.00    0.00    0.00    0.00      0      0      0       0     155 13.10
 2014 265   101    99   20.0      5   3.18   2621   3052   2032   1402   5673  10640    908  223.7  0.191   4967      6  0.000  0.000  0.000  0.000  0.000  0.000  0.000   1.47  40.91   0.47      0   4967    121.2   1.60   0.00   0.65    4.00    4.00    4.00    3.19    3.22    4.00    0.00    0.00    0.00    0.00      0      0      0       0     162 13.00
 2014 266   102   100   20.0      5   3.15   2621   3052   2128   1441   5673  10736    908  234.3  0.198   5064      6  0.000  0.000  0.000  0.000  0.000  0.000  0.000   1.45  42.03   0.47      0   5064    120.1   1.60   0.00   0.65    4.00    4.00    4.00    3.25    3.31    4.00    0.00    0.00    0.00    0.00      0      0      0       0     169 12.75
 2014 267   103   101   20.0      5   3.12   2621   3052   2225   1475   5673  10833    908  245.0  0.205   5160      6  0.000  0.000  0.000  0.000  0.000  0.000  0.000   1.42  43.12   0.48      0   5160    118.9   1.60   0.00   0.65    4.00    4.00    4.00    3.31    3.38    4.00    0.00    0.00    0.00    0.00      0      0      0       0     176 13.05
 2014 268   104   102   20.0      5   3.08   2621   3052   2322   1502   5673  10930    908  255.6  0.212   5257      6  0.000  0.000  0.000  0.000  0.000  0.000  0.000   1.40  44.17   0.48      0   5257    117.5   1.60   0.00   0.65    4.00    4.00    4.00    3.35    3.43    4.00    0.00    0.00    0.00    0.00      0      0      0       0     184 13.75
 2014 269   105   103   20.0      5   3.05   2621   3052   2419   1532   5673  11027    908  266.3  0.219   5354      6  0.000  0.000  0.000  0.000  0.000  0.000  0.000   1.38  45.18   0.49      0   5354    116.2   1.60   0.00   0.65    4.00    4.00    4.00    3.41    3.48    4.00    0.00    0.00    0.00    0.00      0      0      0       0     191 12.70
 2014 270   106   104   20.0      5   3.01   2621   3052   2515   1556   5673  11123    908  276.9  0.226   5451      6  0.000  0.000  0.000  0.000  0.000  0.000  0.000   1.35  46.15   0.49      0   5451    114.8   1.60   0.00   0.65    4.00    4.00    4.00    3.45    3.52    4.00    0.00    0.00    0.00    0.00      0      0      0       0     199 13.05
 2014 271   107   105   20.0      5   2.97   2621   3052   2612   1590   5673  11220    908  287.6  0.233   5547      6  0.000  0.000  0.000  0.000  0.000  0.000  0.000   1.33  47.09   0.49      0   5547    113.3   1.60   0.00   0.65    4.00    4.00    4.00    3.52    3.56    4.00    0.00    0.00    0.00    0.00      0      0      0       0     207 13.00
 2014 272   108   106   20.0      5   2.93   2621   3052   2709   1615   5673  11317    908  298.2  0.239   5644      6  0.000  0.000  0.000  0.000  0.000  0.000  0.000   1.31  48.00   0.50      0   5644    111.8   1.60   0.00   0.65    4.00    4.00    4.00    3.57    3.59    4.00    0.00    0.00    0.00    0.00      0      0      0       0     215 12.80
 2014 273   109   107   20.0      5   2.88   2621   3052   2806   1646   5673  11414    908  308.9  0.246   5741      6  0.000  0.000  0.000  0.000  0.000  0.000  0.000   1.28  48.87   0.50      0   5741    110.0   1.60   0.00   0.65    4.00    4.00    4.00    3.64    3.62    4.00    0.00    0.00    0.00    0.00      0      0      0       0     223 13.95
 2014 274   110   108   20.0      5   2.84   2621   3052   2902   1677   5673  11510    908  319.5  0.252   5838      6  0.000  0.000  0.000  0.000  0.000  0.000  0.000   1.26  49.72   0.51      0   5838    108.2   1.60   0.00   0.65    4.00    4.00    4.00    3.71    3.65    4.00    0.00    0.00    0.00    0.00      0      0      0       0     231 13.30
 2014 275   111   109   20.0      5   2.79   2621   3052   2999   1717   5673  11607    908  330.2  0.258   5934      6  0.000  0.000  0.000  0.000  0.000  0.000  0.000   1.24  50.54   0.51      0   5934    106.6   1.60   0.00   0.65    4.00    4.00    4.00    3.80    3.68    4.00    0.00    0.00    0.00    0.00      0      0      0       0     239 11.65
 2014 276   112   110   20.0      5   2.75   2621   3052   3096   1748   5673  11704    908  340.8  0.265   6031      6  0.000  0.000  0.000  0.000  0.000  0.000  0.000   1.22  51.33   0.52      0   6031    104.9   1.60   0.00   0.65    4.00    4.00    4.00    3.88    3.70    4.00    0.00    0.00    0.00    0.00      0      0      0       0     248 12.15
 2014 277   113   111   20.0      5   2.70   2621   3052   3193   1784   5673  11801    908  351.5  0.271   6128      6  0.000  0.000  0.000  0.000  0.000  0.000  0.000   1.19  52.10   0.52      0   6128    103.0   1.60   0.00   0.65    4.00    4.00    4.00    3.97    3.73    4.00    0.00    0.00    0.00    0.00      0      0      0       0     257 12.40
 2014 278   114   112   20.0      5   2.65   2621   3052   3289   1818   5673  11897    908  362.1  0.276   6225      6  0.000  0.000  0.000  0.000  0.000  0.000  0.000   1.17  52.85   0.52      0   6225    101.1   1.60   0.00   0.65    4.00    4.00    4.00    4.00    3.73    4.00    0.00    0.00    0.00    0.00      0      0      0       0     266 12.15
 2014 279   115   113   20.0      5   2.59   2621   3052   3386   1861   5673  11994    908  372.8  0.282   6321      6  0.000  0.000  0.003  0.000  0.000  0.000  0.000   1.14  53.57   0.53      0   6321     98.9   1.60   0.00   0.65    4.00    4.00    4.00    4.00    3.73    4.00    0.00    0.00    0.00    0.00      0      0      0       0     275 13.10
 2014 280   116   114   20.0      5   2.53   2621   3052   3483   1883   5673  12091    908  383.4  0.288   6418      6  0.000  0.000  0.008  0.000  0.000  0.000  0.000   1.12  54.27   0.53      0   6418     96.7   1.60   0.00   0.65    4.00    4.00    4.00    4.00    3.72    4.00    0.00    0.00    0.00    0.00      0      0      0       0     284 12.70
 2014 281   117   115   20.0      5   2.47   2621   3052   3580   1910   5673  12188    908  394.1  0.294   6515      6  0.000  0.000  0.012  0.000  0.000  0.000  0.000   1.10  54.95   0.53      0   6515     94.4   1.60   0.00   0.65    4.00    4.00    4.00    4.00    3.72    4.00    0.00    0.00    0.00    0.00      0      0      0       0     293 12.90
 2014 282   118   116   20.0      5   2.41   2621   3052   3676   1937   5673  12284    908  404.7  0.299   6612      6  0.000  0.000  0.017  0.000  0.000  0.000  0.000   1.07  55.61   0.54      0   6612     92.0   1.60   0.00   0.65    4.00    4.00    4.00    4.00    3.72    4.00    0.00    0.00    0.00    0.00      0      0      0       0     303 13.00
 2014 283   119   117   20.0      5   2.34   2621   3052   3773   1965   5673  12381    908  415.4  0.305   6708      6  0.000  0.000  0.022  0.000  0.000  0.000  0.000   1.05  56.25   0.54      0   6708     89.3   1.60   0.00   0.65    4.00    4.00    4.00    4.00    3.72    4.00    0.00    0.00    0.00    0.00      0      0      0       0     313 13.65
 2014 284   120   118   20.0      5   2.27   2621   3052   3870   1987   5673  12478    908  426.0  0.310   6805      6  0.000  0.000  0.027  0.000  0.000  0.000  0.000   1.03  56.87   0.55      0   6805     86.5   1.60   0.00   0.65    4.00    4.00    4.00    4.00    3.71    4.00    0.00    0.00    0.00    0.00      0      0      0       0     322 13.85
 2014 285   121   119   20.0      5   2.19   2621   3052   3967   2015   5673  12575    908  436.7  0.315   6902      6  0.000  0.000  0.033  0.000  0.000  0.000  0.000   1.00  57.47   0.55      0   6902     83.7   1.60   0.00   0.65    4.00    4.00    4.00    4.00    3.72    4.00    0.00    0.00    0.00    0.00      0      0      0       0     332 13.55
 2014 286   122   120   20.0      5   2.11   2621   3052   4063   2042   5673  12671    908  447.3  0.321   6999      6  0.000  0.000  0.038  0.000  0.000  0.000  0.000   0.98  58.06   0.55      0   6999     80.6   1.60   0.00   0.65    4.00    4.00    4.00    4.00    3.72    4.00    0.00    0.00    0.00    0.00      0      0      0       0     342 14.15
 2014 287   123   121   20.0      5   2.03   2621   3052   4160   2059   5673  12768    908  458.0  0.326   7095      6  0.000  0.000  0.042  0.000  0.000  0.000  0.000   0.96  58.63   0.56      0   7095     77.3   1.60   0.00   0.65    4.00    4.00    4.00    4.00    3.71    4.00    0.00    0.00    0.00    0.00      0      0      0       0     353 14.40
 2014 288   124   122   20.0      5   1.94   2621   3052   4257   2084   5673  12865    908  468.6  0.331   7192      6  0.000  0.000  0.047  0.000  0.000  0.000  0.000   0.94  59.19   0.56      0   7192     74.1   1.60   0.00   0.65    4.00    4.00    4.00    4.00    3.71    4.00    0.00    0.00    0.00    0.00      0      0      0       0     363 13.50
 2014 289   125   123   20.0      5   1.86   2621   3052   4354   2110   5673  12962    908  479.3  0.336   7289      6  0.000  0.000  0.054  0.000  0.000  0.000  0.000   0.92  59.73   0.56      0   7289     71.0   1.60   0.00   0.65    4.00    4.00    4.00    4.00    3.71    4.00    0.00    0.00    0.00    0.00      0      0      0       0     373 12.40
 2014 290   126   124   20.0      5   1.78   2621   3052   4450   2130   5673  13058    908  489.9  0.341   7386      6  0.000  0.000  0.060  0.000  0.000  0.000  0.000   0.90  60.26   0.57      0   7386     67.7   1.60   0.00   0.65    4.00    4.00    4.00    4.00    3.71    4.00    0.00    0.00    0.00    0.00      0      0      0       0     384 12.85
 2014 291   127   125   20.0      5   1.68   2621   3052   4547   2154   5673  13155    908  500.6  0.346   7482      6  0.000  0.000  0.066  0.000  0.000  0.000  0.000   0.88  60.77   0.57      0   7482     64.1   1.60   0.00   0.65    4.00    4.00    4.00    4.00    3.71    4.00    0.00    0.00    0.00    0.00      0      0      0       0     395 13.65
 2014 292   128   126   20.0      5   1.59   2621   3052   4644   2170   5673  13252    908  511.2  0.350   7579      6  0.000  0.000  0.072  0.000  0.000  0.000  0.000   0.86  61.27   0.57      0   7579     60.5   1.60   0.00   0.65    4.00    4.00    4.00    4.00    3.70    4.00    0.00    0.00    0.00    0.00      0      0      0       0     405 13.20
 2014 293   129   127   20.0      5   1.59   2621   3052   4644   2170   5673  13252    908  511.2  0.350   7579      6  0.000  0.000  0.078  0.000  0.000  0.000  0.000   0.86  61.27   0.57      0   7579     60.5   1.60   0.00   0.65    4.00    4.00    4.00    4.00    3.70    4.00    0.00    0.00    0.00    0.00      0      0      0       0     405 13.80
 2014 294   130   128   20.0      5   1.59   2621   3052   4644   2170   5673  13252    908  511.2  0.350   7579      6  0.000  0.000  0.078  0.000  0.000  0.000  0.000   0.86  61.27   0.57      0   7579     60.5   1.60   0.00   0.65    4.00    4.00    4.00    4.00    3.69    4.00    0.00    0.00    0.00    0.00      0      0      0       0     405 13.45
 2014 295   131   129   20.0      5   1.59   2621   3052   4644   2170   5673  13252    908  511.2  0.350   7579      6  0.000  0.000  0.078  0.000  0.000  0.000  0.000   0.86  61.27   0.57      0   7579     60.5   1.60   0.00   0.65    4.00    4.00    4.00    4.00    3.69    4.00    0.00    0.00    0.00    0.00      0      0      0       0     405 12.85
 2014 296   132   130   20.0      5   1.59   2621   3052   4644   2170   5673  13252    908  511.2  0.350   7579      6  0.000  0.000  0.078  0.000  0.000  0.000  0.000   0.86  61.27   0.57      0   7579     60.5   1.60   0.00   0.65    4.00    4.00    4.00    4.00    3.68    4.00    0.00    0.00    0.00    0.00      0      0      0       0     405 13.15
 2014 297   133   131   20.0      5   1.59   2621   3052   4644   2170   5673  13252    908  511.2  0.350   7579      6  0.000  0.000  0.078  0.000  0.000  0.000  0.000   0.86  61.27   0.57      0   7579     60.5   1.60   0.00   0.65    4.00    4.00    4.00    4.00    3.69    4.00    0.00    0.00    0.00    0.00      0      0      0       0     405  0.00
