*PLANT N OUTPUT FILE

*DSSAT Cropping System Model Ver. 4.7.5.008 -release  JAN 07, 2021 20:14:37

*RUN   1        : ERiMA DCC1                MZCER047 ETMZmelk    1
 MODEL          : MZCER047 - Maize
 EXPERIMENT     : ETMZmelk SN MELKSSAL
 DATA PATH      : C:\IRI\Python_Dash\ET_DSS_hist\TEST\
 TREATMENT  1   : ERiMA DCC1                MZCER047
  
@YEAR DOY   DAS   DAP   CNAD   GNAD   VNAD   GN%D   VN%D   NUPC   LNAD   SNAD   LN%D   SN%D   RN%D   SNN0C   SNN1C
 1981 166     2     0    0.0    0.0    0.0   0.00   0.00    0.0    0.0    0.0    0.0   0.00   0.00    0.00    0.00
 1981 167     3     1    0.0    0.0    0.0   0.00   0.00    0.0    0.0    0.0    0.0   0.00   0.00    0.00    0.00
 1981 168     4     2    0.0    0.0    0.0   0.00   0.00    0.0    0.0    0.0    0.0   0.00   0.00    0.00    0.00
 1981 169     5     3    0.0    0.0    0.0   0.00   0.00    0.0    0.0    0.0    0.0   0.00   0.00    0.00    0.00
 1981 170     6     4    0.0    0.0    0.0   0.00   0.00    0.0    0.0    0.0    0.0   0.00   0.00    0.00    0.00
 1981 171     7     5    1.1    0.0    1.1   0.00   4.40    0.0    0.5    0.5    4.4   4.40   2.20    0.00    0.00
 1981 172     8     6    1.1    0.0    1.1   0.00   4.40    0.0    0.5    0.5    4.4   4.40   2.16    0.00    0.00
 1981 173     9     7    1.1    0.0    1.1   0.00   4.40    0.0    0.5    0.5    4.4   4.40   2.06    0.00    0.00
 1981 174    10     8    1.1    0.0    1.1   0.00   4.40    0.0    0.5    0.5    4.4   4.40   1.91    0.00    0.00
 1981 175    11     9    1.1    0.0    1.1   0.00   4.40    0.0    0.5    0.5    4.4   4.40   1.75    0.00    0.00
 1981 176    12    10    1.1    0.0    1.1   0.00   4.07    0.0    0.6    0.5    4.1   4.07   1.56    0.00    0.00
 1981 177    13    11    1.1    0.0    1.1   0.00   3.14    0.0    0.7    0.4    3.1   3.14   1.47    0.00    0.00
 1981 178    14    12    1.4    0.0    1.4   0.00   3.39    0.3    1.0    0.4    3.4   3.39   1.20    0.00    0.00
 1981 179    15    13    1.7    0.0    1.7   0.00   3.29    0.7    1.3    0.4    3.3   3.29   1.23    0.00    0.00
 1981 180    16    14    2.2    0.0    2.2   0.00   3.61    1.3    1.8    0.4    3.6   3.61   1.53    0.00    0.00
 1981 181    17    15    2.5    0.0    2.5   0.00   3.25    1.5    2.1    0.4    3.3   3.25   1.30    0.00    0.01
 1981 182    18    16    3.1    0.0    3.1   0.00   3.38    2.1    2.7    0.4    3.4   3.38   1.21    0.00    0.01
 1981 183    19    17    3.6    0.0    3.6   0.00   3.60    2.9    3.2    0.4    3.6   3.60   1.50    0.00    0.01
 1981 184    20    18    4.0    0.0    4.0   0.00   3.65    3.4    3.5    0.4    3.7   3.65   1.71    0.00    0.01
 1981 185    21    19    4.3    0.0    4.3   0.00   3.20    3.6    3.9    0.4    3.2   3.20   1.34    0.00    0.02
 1981 186    22    20    5.1    0.0    5.1   0.00   3.38    4.7    4.7    0.4    3.4   3.38   1.43    0.00    0.02
 1981 187    23    21    5.9    0.0    5.9   0.00   3.15    5.6    5.6    0.4    3.2   3.15   1.33    0.00    0.02
 1981 188    24    22    7.2    0.0    7.2   0.00   3.29    7.2    6.8    0.4    3.3   3.29   1.48    0.00    0.03
 1981 189    25    23    9.9    0.0    9.9   0.00   4.06   10.2    9.5    0.5    4.1   4.06   1.43    0.00    0.04
 1981 190    26    24   10.6    0.0   10.6   0.00   3.91   11.0   10.2    0.5    3.9   3.91   1.31    0.00    0.04
 1981 191    27    25   11.4    0.0   11.4   0.00   3.82   12.1   10.9    0.5    3.8   3.82   1.38    0.00    0.05
 1981 192    28    26   13.1    0.0   13.1   0.00   3.77   13.6   12.6    0.5    3.8   3.77   1.17    0.00    0.06
 1981 193    29    27   14.9    0.0   14.9   0.00   3.72   15.5   14.4    0.5    3.7   3.72   1.18    0.00    0.07
 1981 194    30    28   17.4    0.0   17.4   0.00   3.69   18.6   16.9    0.6    3.7   3.69   1.32    0.00    0.08
 1981 195    31    29   19.5    0.0   19.5   0.00   3.61   20.8   18.8    0.7    3.6   3.61   1.27    0.00    0.09
 1981 196    32    30   21.9    0.0   21.9   0.00   3.56   23.4   21.1    0.9    3.6   3.56   1.25    0.00    0.10
 1981 197    33    31   25.0    0.0   25.0   0.00   3.53   26.8   23.8    1.1    3.5   3.53   1.26    0.00    0.12
 1981 198    34    32   28.0    0.0   28.0   0.00   3.48   29.9   26.5    1.5    3.5   3.48   1.20    0.00    0.13
 1981 199    35    33   31.0    0.0   31.0   0.00   3.42   33.4   29.1    2.0    3.4   3.42   1.25    0.00    0.15
 1981 200    36    34   34.3    0.0   34.3   0.00   3.37   36.8   31.7    2.5    3.4   3.37   1.21    0.00    0.16
 1981 201    37    35   37.5    0.0   37.5   0.00   3.33   40.2   34.3    3.2    3.3   3.33   1.17    0.00    0.18
 1981 202    38    36   41.2    0.0   41.2   0.00   3.29   44.3   37.2    4.1    3.3   3.29   1.21    0.00    0.20
 1981 203    39    37   44.4    0.0   44.4   0.00   3.23   47.6   39.5    5.0    3.2   3.23   1.17    0.00    0.22
 1981 204    40    38   48.0    0.0   48.0   0.00   3.20   51.8   42.0    6.0    3.2   3.20   1.23    0.00    0.24
 1981 205    41    39   51.9    0.0   51.9   0.00   3.16   56.3   44.6    7.3    3.2   3.16   1.25    0.00    0.27
 1981 206    42    40   55.7    0.0   55.7   0.00   3.12   60.1   47.0    8.7    3.1   3.12   1.18    0.00    0.30
 1981 207    43    41   58.9    0.0   58.9   0.00   3.07   63.0   49.0    9.9    3.1   3.07   1.10    0.00    0.32
 1981 208    44    42   62.7    0.0   62.7   0.00   3.03   67.6   51.2   11.5    3.0   3.03   1.19    0.00    0.35
 1981 209    45    43   65.1    0.0   65.1   0.00   2.92   70.2   52.1   13.0    2.9   2.92   1.15    0.00    0.38
 1981 210    46    44   66.8    0.0   66.8   0.00   2.81   71.8   52.5   14.2    2.8   2.81   1.12    0.00    0.41
 1981 211    47    45   74.4    0.0   74.4   0.00   2.93   79.4   57.4   17.0    2.9   2.93   1.10    0.00    0.44
 1981 212    48    46   78.2    0.0   78.2   0.00   2.90   83.3   59.3   18.9    2.9   2.90   1.10    0.00    0.47
 1981 213    49    47   83.4    0.0   83.4   0.00   2.88   89.1   61.9   21.5    2.9   2.88   1.15    0.00    0.50
 1981 214    50    48   86.0    0.0   86.0   0.00   2.82   91.5   63.4   22.6    2.8   2.82   1.09    0.00    0.53
 1981 215    51    49   92.0    0.0   92.0   0.00   2.82   97.7   66.3   25.7    2.8   2.82   1.11    0.00    0.56
 1981 216    52    50   96.0    0.0   96.0   0.00   2.77  101.8   67.5   28.5    2.8   2.77   1.10    0.00    0.59
 1981 217    53    51   98.1    0.0   98.1   0.00   2.66  103.9   67.1   30.9    2.7   2.66   1.09    0.00    0.63
 1981 218    54    52   99.5    0.0   99.5   0.00   2.54  105.4   66.2   33.2    2.5   2.54   1.08    0.00    0.66
 1981 219    55    53  100.3    0.0  100.3   0.00   2.42  106.3   65.0   35.3    2.4   2.42   1.05    0.00    0.69
 1981 220    56    54  101.2    0.0  101.2   0.00   2.32  107.3   64.1   37.2    2.3   2.32   1.02    0.00    0.72
 1981 221    57    55  102.1    0.0  102.1   0.00   2.22  108.2   63.1   39.0    2.2   2.22   1.00    0.00    0.76
 1981 222    58    56  102.9    0.0  102.9   0.00   2.15  109.0   62.4   40.5    2.2   2.15   0.99    0.00    0.79
 1981 223    59    57  103.6    0.0  103.6   0.00   2.09  109.8   61.8   41.8    2.1   2.09   0.99    0.00    0.82
 1981 224    60    58  104.3    0.0  104.3   0.00   2.05  110.5   61.4   42.8    2.1   2.05   0.98    0.00    0.86
 1981 225    61    59  104.9    0.0  104.9   0.00   2.01  111.2   61.1   43.7    2.0   2.01   0.94    0.00    0.89
 1981 226    62    60  105.4    0.0  105.4   0.00   1.97  111.9   60.9   44.6    2.0   1.97   0.91    0.00    0.93
 1981 227    63    61  106.0    0.0  106.0   0.00   1.94  112.5   60.8   45.2    1.9   1.94   0.88    0.00    0.96
 1981 228    64    62  106.6    0.0  106.6   0.00   1.91  113.1   60.7   45.9    1.9   1.91   0.88    0.00    0.99
 1981 229    65    63  107.1    0.0  107.1   0.00   1.89  113.8   61.0   46.2    1.9   1.89   0.84    0.00    1.03
 1981 230    66    64  107.7    0.0  107.7   0.00   1.88  114.4   61.5   46.2    1.9   1.88   0.80    0.00    1.06
 1981 231    67    65  108.2    0.0  108.2   0.00   1.85  115.0   61.4   46.7    1.9   1.85   0.76    0.00    1.10
 1981 232    68    66  108.7    0.0  108.7   0.00   1.85  115.6   62.1   46.6    1.8   1.85   0.73    0.00    1.13
 1981 233    69    67  109.2    0.0  109.2   0.00   1.82  116.3   62.0   47.1    1.8   1.82   0.71    0.00    1.17
 1981 234    70    68  109.7    0.0  109.7   0.00   1.81  116.9   61.0   48.6    1.8   1.81   0.71    0.00    1.21
 1981 235    71    69  110.1    0.0  110.1   0.00   1.80  117.3   60.0   50.1    1.8   1.80   0.72    0.00    1.24
 1981 236    72    70  110.5    0.0  110.5   0.00   1.80  117.9   59.1   51.5    1.8   1.80   0.72    0.00    1.28
 1981 237    73    71  111.0    0.0  111.0   0.00   1.79  118.5   58.1   52.9    1.8   1.79   0.72    0.00    1.32
 1981 238    74    72  111.5    0.0  111.5   0.00   1.79  119.0   57.3   54.2    1.8   1.79   0.73    0.00    1.35
 1981 239    75    73  111.8    0.0  111.8   0.00   1.78  119.5   56.3   55.5    1.8   1.78   0.73    0.00    1.39
 1981 240    76    74  112.3    0.0  112.3   0.00   1.78  120.1   55.4   56.9    1.8   1.78   0.73    0.00    1.43
 1981 241    77    75  112.7    0.0  112.7   0.00   1.78  120.6   54.5   58.2    1.8   1.78   0.73    0.00    1.47
 1981 242    78    76  113.2    0.0  113.2   0.00   1.79  121.2   53.7   59.4    1.8   1.79   0.74    0.00    1.51
 1981 243    79    77  113.5    0.0  113.5   0.00   1.79  121.7   53.0   60.5    1.8   1.79   0.74    0.00    1.55
 1981 244    80    78  113.9    0.0  113.9   0.00   1.80  122.2   52.2   61.7    1.8   1.80   0.75    0.00    1.58
 1981 245    81    79  114.3    0.0  114.3   0.00   1.81  122.7   51.3   63.0    1.8   1.81   0.76    0.00    1.63
 1981 246    82    80  114.7    0.0  114.7   0.00   1.82  123.3   50.5   64.1    1.8   1.82   0.76    0.00    1.67
 1981 247    83    81  115.0    0.0  115.0   0.00   1.83  123.8   49.7   65.3    1.8   1.83   0.77    0.00    1.71
 1981 248    84    82  115.3    1.7  113.6   1.69   1.80  124.3   49.1   64.5    1.8   1.80   0.77    0.00    1.75
 1981 249    85    83  115.5    3.4  112.1   1.69   1.78  124.8   48.5   63.7    1.8   1.78   0.76    0.00    1.79
 1981 250    86    84  115.8    5.0  110.8   1.68   1.76  125.3   47.9   62.9    1.8   1.76   0.75    0.00    1.84
 1981 251    87    85  116.0    6.7  109.3   1.68   1.74  125.7   47.2   62.0    1.7   1.74   0.74    0.00    1.88
 1981 252    88    86  116.3    8.4  107.9   1.68   1.71  126.2   46.6   61.2    1.7   1.71   0.73    0.00    1.93
 1981 253    89    87  116.5   10.1  106.5   1.68   1.69  126.8   46.0   60.4    1.7   1.69   0.73    0.00    1.97
 1981 254    90    88  116.8   11.8  105.0   1.68   1.67  127.3   45.4   59.6    1.7   1.67   0.73    0.00    2.02
 1981 255    91    89  117.0   13.4  103.6   1.68   1.65  127.8   44.8   58.8    1.6   1.65   0.73    0.00    2.07
 1981 256    92    90  117.3   15.1  102.2   1.68   1.62  128.3   44.2   58.0    1.6   1.62   0.73    0.00    2.12
 1981 257    93    91  117.5   16.8  100.7   1.68   1.60  128.8   43.5   57.2    1.6   1.60   0.73    0.00    2.17
 1981 258    94    92  117.7   18.4   99.3   1.68   1.58  129.3   42.9   56.4    1.6   1.58   0.73    0.00    2.22
 1981 259    95    93  117.9   20.1   97.8   1.68   1.55  129.7   42.3   55.5    1.6   1.55   0.73    0.00    2.28
 1981 260    96    94  118.1   21.8   96.4   1.68   1.53  130.2   41.7   54.7    1.5   1.53   0.72    0.00    2.33
 1981 261    97    95  118.4   23.4   95.0   1.68   1.51  130.7   41.0   53.9    1.5   1.51   0.73    0.00    2.39
 1981 262    98    96  118.6   25.1   93.5   1.68   1.49  131.1   40.4   53.1    1.5   1.49   0.72    0.00    2.44
 1981 263    99    97  118.7   26.7   92.0   1.67   1.46  131.4   39.8   52.2    1.5   1.46   0.71    0.00    2.50
 1981 264   100    98  118.9   28.4   90.6   1.67   1.44  131.9   39.1   51.4    1.4   1.44   0.71    0.00    2.56
 1981 265   101    99  119.1   30.0   89.2   1.67   1.42  132.4   38.5   50.6    1.4   1.42   0.71    0.00    2.62
 1981 266   102   100  119.3   31.6   87.7   1.67   1.39  132.9   37.9   49.8    1.4   1.39   0.71    0.00    2.68
 1981 267   103   101  119.6   33.2   86.3   1.67   1.37  133.4   37.3   49.0    1.4   1.37   0.70    0.00    2.74
 1981 268   104   102  119.8   34.9   85.0   1.66   1.35  133.9   36.7   48.2    1.3   1.35   0.70    0.00    2.80
 1981 269   105   103  120.0   36.5   83.6   1.66   1.33  134.4   36.1   47.4    1.3   1.33   0.71    0.00    2.86
 1981 270   106   104  120.3   38.1   82.2   1.66   1.31  134.9   35.5   46.7    1.3   1.31   0.71    0.00    2.93
 1981 271   107   105  120.5   39.7   80.8   1.66   1.28  135.4   34.9   45.9    1.3   1.28   0.71    0.00    2.99
 1981 272   108   106  120.7   41.2   79.5   1.65   1.26  135.9   34.3   45.1    1.3   1.26   0.71    0.00    3.06
 1981 273   109   107  120.9   42.8   78.1   1.65   1.24  136.4   33.8   44.3    1.2   1.24   0.70    0.00    3.12
 1981 274   110   108  121.1   44.4   76.7   1.65   1.22  136.8   33.2   43.6    1.2   1.22   0.70    0.00    3.19
 1981 275   111   109  121.3   45.9   75.4   1.64   1.20  137.3   32.6   42.8    1.2   1.20   0.70    0.00    3.26
 1981 276   112   110  121.5   47.5   74.1   1.64   1.18  137.8   32.0   42.0    1.2   1.18   0.70    0.00    3.33
 1981 277   113   111  121.7   49.0   72.7   1.64   1.16  138.2   31.4   41.3    1.2   1.16   0.70    0.00    3.40
 1981 278   114   112  121.9   50.5   71.4   1.63   1.13  138.7   30.9   40.5    1.1   1.13   0.69    0.00    3.48
 1981 279   115   113  122.1   52.0   70.1   1.63   1.11  139.2   30.3   39.8    1.1   1.11   0.69    0.00    3.55
 1981 280   116   114  122.4   53.5   68.8   1.63   1.09  139.7   29.8   39.1    1.1   1.09   0.68    0.00    3.62
 1981 281   117   115  122.6   55.0   67.6   1.62   1.07  140.2   29.2   38.4    1.1   1.07   0.68    0.00    3.70
 1981 282   118   116  122.8   56.5   66.3   1.62   1.05  140.6   28.7   37.6    1.1   1.05   0.67    0.00    3.77
 1981 283   119   117  123.0   58.0   65.0   1.61   1.03  141.1   28.1   36.9    1.0   1.03   0.67    0.00    3.85
 1981 284   120   118  123.1   59.4   63.7   1.61   1.01  141.4   27.5   36.2    1.0   1.01   0.68    0.00    3.93
 1981 285   121   119  123.2   60.8   62.4   1.60   0.99  141.7   27.0   35.4    1.0   0.99   0.67    0.00    4.01
 1981 286   122   120  123.3   62.3   61.1   1.60   0.97  142.0   26.4   34.7    1.0   0.97   0.67    0.00    4.09
 1981 287   123   121  123.4   63.6   59.8   1.59   0.95  142.3   25.8   33.9    0.9   0.95   0.67    0.00    4.17
 1981 288   124   122  123.5   65.0   58.5   1.59   0.93  142.6   25.3   33.2    0.9   0.93   0.66    0.00    4.25
 1981 289   125   123  123.5   66.4   57.2   1.58   0.91  142.8   24.7   32.5    0.9   0.91   0.66    0.00    4.33
 1981 290   126   124  123.6   67.8   55.8   1.58   0.89  142.9   24.1   31.7    0.9   0.89   0.65    0.00    4.41
 1981 291   127   125  123.6   68.8   54.8   1.58   0.87  143.1   23.7   31.1    0.9   0.87   0.65    0.00    4.49
 1981 292   128   126  123.6   69.7   53.9   1.57   0.86  143.2   23.3   30.6    0.9   0.86   0.66    0.00    4.57
 1981 293   129   127  123.6   70.5   53.1   1.57   0.84  143.3   22.9   30.1    0.8   0.84   0.66    0.00    4.65
 1981 294   130   128  123.6   71.3   52.2   1.57   0.83  143.4   22.6   29.7    0.8   0.83   0.66    0.00    4.73
 1981 295   131   129  123.5   72.1   51.4   1.57   0.82  143.4   22.2   29.2    0.8   0.82   0.67    0.00    4.82
 1981 296   132   130  123.5   72.9   50.6   1.57   0.81  143.5   21.9   28.7    0.8   0.81   0.67    0.00    4.90
 1981 297   133   131  123.4   73.6   49.8   1.56   0.79  143.5   21.6   28.2    0.8   0.79   0.67    0.00    4.98
 1981 298   134   132  123.4   74.3   49.1   1.56   0.78  143.5   21.3   27.7    0.8   0.78   0.68    0.00    5.06
 1981 299   135   133  123.3   75.0   48.3   1.56   0.78  143.5   21.1   27.2    0.8   0.78   0.68    0.00    5.15
 1981 300   136   134  123.2   75.6   47.6   1.56   0.77  143.5   21.0   26.7    0.8   0.77   0.68    0.00    5.23
 1981 301   137   135  123.2   75.6   47.6   1.56   0.77  143.5   21.0   26.7    0.8   0.77   0.68    0.00    5.23
 1981 302   138   136  123.2   75.6   47.6   1.56   0.77  143.5   21.0   26.7    0.8   0.77   0.68    0.00    5.23
 1981 303   139   137  123.2   75.6   47.6   1.56   0.77  143.5   21.0   26.7    0.8   0.77   0.68    0.00    5.23
 1981 304   140   138  123.2   75.6   47.6   1.56   0.77  143.5   21.0   26.7    0.8   0.77   0.68    0.00    5.23
 1981 305   141   139  123.2   75.6   47.6   1.56   0.77  143.5   21.0   26.7    0.8   0.77   0.68    0.00    5.23

*DSSAT Cropping System Model Ver. 4.7.5.008 -release  JAN 07, 2021 20:14:37

*RUN   2        : ERiMA DCC1                MZCER047 ETMZmelk    1
 MODEL          : MZCER047 - Maize
 EXPERIMENT     : ETMZmelk SN MELKSSAL
 DATA PATH      : C:\IRI\Python_Dash\ET_DSS_hist\TEST\
 TREATMENT  1   : ERiMA DCC1                MZCER047
  
@YEAR DOY   DAS   DAP   CNAD   GNAD   VNAD   GN%D   VN%D   NUPC   LNAD   SNAD   LN%D   SN%D   RN%D   SNN0C   SNN1C
 1982 166     2     0    0.0    0.0    0.0   0.00   0.00    0.0    0.0    0.0    0.0   0.00   0.00    0.00    0.00
 1982 167     3     1    0.0    0.0    0.0   0.00   0.00    0.0    0.0    0.0    0.0   0.00   0.00    0.00    0.00
 1982 168     4     2    0.0    0.0    0.0   0.00   0.00    0.0    0.0    0.0    0.0   0.00   0.00    0.00    0.00
 1982 169     5     3    0.0    0.0    0.0   0.00   0.00    0.0    0.0    0.0    0.0   0.00   0.00    0.00    0.00
 1982 170     6     4    0.0    0.0    0.0   0.00   0.00    0.0    0.0    0.0    0.0   0.00   0.00    0.00    0.00
 1982 171     7     5    0.0    0.0    0.0   0.00   0.00    0.0    0.0    0.0    0.0   0.00   0.00    0.00    0.00
 1982 172     8     6    1.1    0.0    1.1   0.00   4.40    0.0    0.5    0.5    4.4   4.40   2.20    0.00    0.00
 1982 173     9     7    1.1    0.0    1.1   0.00   4.40    0.0    0.5    0.5    4.4   4.40   2.15    0.00    0.00
 1982 174    10     8    1.1    0.0    1.1   0.00   4.40    0.0    0.5    0.5    4.4   4.40   2.06    0.00    0.00
 1982 175    11     9    1.1    0.0    1.1   0.00   4.40    0.0    0.5    0.5    4.4   4.40   1.93    0.00    0.00
 1982 176    12    10    1.1    0.0    1.1   0.00   4.40    0.0    0.5    0.5    4.4   4.40   1.76    0.00    0.00
 1982 177    13    11    1.1    0.0    1.1   0.00   4.40    0.0    0.5    0.5    4.4   4.40   1.59    0.00    0.00
 1982 178    14    12    1.1    0.0    1.1   0.00   4.09    0.0    0.6    0.5    4.1   4.09   1.42    0.00    0.00
 1982 179    15    13    1.1    0.0    1.1   0.00   3.47    0.0    0.7    0.4    3.5   3.47   1.18    0.00    0.00
 1982 180    16    14    1.3    0.0    1.3   0.00   3.22    0.3    0.9    0.4    3.2   3.22   1.21    0.00    0.00
 1982 181    17    15    1.7    0.0    1.7   0.00   3.27    0.7    1.3    0.4    3.3   3.27   1.27    0.00    0.00
 1982 182    18    16    2.1    0.0    2.1   0.00   3.32    1.1    1.7    0.4    3.3   3.32   1.29    0.00    0.01
 1982 183    19    17    2.6    0.0    2.6   0.00   3.27    1.7    2.2    0.4    3.3   3.27   1.38    0.00    0.01
 1982 184    20    18    3.1    0.0    3.1   0.00   3.29    2.3    2.7    0.4    3.3   3.29   1.37    0.00    0.01
 1982 185    21    19    3.8    0.0    3.8   0.00   3.28    3.1    3.4    0.4    3.3   3.28   1.41    0.00    0.01
 1982 186    22    20    4.5    0.0    4.5   0.00   3.19    4.0    4.1    0.4    3.2   3.19   1.41    0.00    0.01
 1982 187    23    21    5.5    0.0    5.5   0.00   3.39    5.2    5.1    0.4    3.4   3.39   1.49    0.00    0.02
 1982 188    24    22    6.3    0.0    6.3   0.00   3.23    6.0    5.9    0.4    3.2   3.23   1.29    0.00    0.02
 1982 189    25    23    7.5    0.0    7.5   0.00   3.17    7.5    7.1    0.4    3.2   3.17   1.39    0.00    0.03
 1982 190    26    24   11.2    0.0   11.2   0.00   4.05   11.2   10.7    0.5    4.1   4.05   1.28    0.00    0.04
 1982 191    27    25   12.6    0.0   12.6   0.00   3.96   12.8   12.1    0.5    4.0   3.96   1.28    0.00    0.04
 1982 192    28    26   14.6    0.0   14.6   0.00   3.88   15.4   14.2    0.5    3.9   3.88   1.44    0.00    0.05
 1982 193    29    27   16.0    0.0   16.0   0.00   3.74   17.1   15.6    0.5    3.7   3.74   1.39    0.00    0.06
 1982 194    30    28   17.6    0.0   17.6   0.00   3.67   19.0   17.1    0.5    3.7   3.67   1.34    0.00    0.07
 1982 195    31    29   19.6    0.0   19.6   0.00   3.63   21.1   19.1    0.6    3.6   3.63   1.24    0.00    0.08
 1982 196    32    30   21.0    0.0   21.0   0.00   3.55   23.2   20.4    0.7    3.6   3.55   1.35    0.00    0.10
 1982 197    33    31   23.2    0.0   23.2   0.00   3.53   25.6   22.3    0.8    3.5   3.53   1.30    0.00    0.11
 1982 198    34    32   26.2    0.0   26.2   0.00   3.52   28.6   25.1    1.1    3.5   3.52   1.19    0.00    0.13
 1982 199    35    33   28.4    0.0   28.4   0.00   3.45   30.8   27.0    1.4    3.4   3.45   1.13    0.00    0.15
 1982 200    36    34   29.8    0.0   29.8   0.00   3.43   32.6   28.2    1.6    3.4   3.43   1.22    0.00    0.17
 1982 201    37    35   31.4    0.0   31.4   0.00   3.50   34.9   29.6    1.8    3.5   3.50   1.37    0.00    0.19
 1982 202    38    36   32.0    0.0   32.0   0.00   3.48   35.6   30.1    2.0    3.5   3.48   1.33    0.00    0.21
 1982 203    39    37   32.0    0.0   32.0   0.00   3.23   35.6   29.7    2.3    3.2   3.23   1.32    0.00    0.21
 1982 204    40    38   36.3    0.0   36.3   0.00   3.28   39.7   33.0    3.2    3.3   3.28   1.21    0.00    0.23
 1982 205    41    39   39.8    0.0   39.8   0.00   3.24   43.4   35.5    4.2    3.2   3.24   1.18    0.00    0.26
 1982 206    42    40   43.4    0.0   43.4   0.00   3.20   46.9   38.0    5.4    3.2   3.20   1.11    0.00    0.28
 1982 207    43    41   47.3    0.0   47.3   0.00   3.16   51.3   40.6    6.8    3.2   3.16   1.17    0.00    0.30
 1982 208    44    42   51.6    0.0   51.6   0.00   3.12   55.9   43.3    8.4    3.1   3.12   1.17    0.00    0.33
 1982 209    45    43   55.8    0.0   55.8   0.00   3.08   60.4   45.7   10.1    3.1   3.08   1.18    0.00    0.35
 1982 210    46    44   60.2    0.0   60.2   0.00   3.04   65.0   48.2   12.0    3.0   3.04   1.16    0.00    0.38
 1982 211    47    45   63.9    0.0   63.9   0.00   2.99   68.6   50.2   13.8    3.0   2.99   1.10    0.00    0.41
 1982 212    48    46   68.6    0.0   68.6   0.00   2.96   73.3   52.6   16.0    3.0   2.96   1.10    0.00    0.44
 1982 213    49    47   72.2    0.0   72.2   0.00   2.92   77.0   54.3   17.9    2.9   2.92   1.10    0.00    0.47
 1982 214    50    48   75.0    0.0   75.0   0.00   2.87   79.9   55.4   19.6    2.9   2.87   1.09    0.00    0.50
 1982 215    51    49   81.0    0.0   81.0   0.00   2.87   86.3   58.5   22.6    2.9   2.87   1.13    0.00    0.52
 1982 216    52    50   87.1    0.0   87.1   0.00   2.84   92.5   63.4   23.8    2.8   2.84   1.11    0.00    0.55
 1982 217    53    51   91.9    0.0   91.9   0.00   2.80   97.3   65.5   26.4    2.8   2.80   1.11    0.00    0.58
 1982 218    54    52   96.3    0.0   96.3   0.00   2.76  101.9   67.1   29.2    2.8   2.76   1.11    0.00    0.62
 1982 219    55    53  100.2    0.0  100.2   0.00   2.72  105.8   68.3   31.9    2.7   2.72   1.10    0.00    0.65
 1982 220    56    54  103.6    0.0  103.6   0.00   2.68  109.3   69.1   34.5    2.7   2.68   1.10    0.00    0.68
 1982 221    57    55  105.2    0.0  105.2   0.00   2.61  111.1   68.8   36.4    2.6   2.61   1.09    0.00    0.71
 1982 222    58    56  106.1    0.0  106.1   0.00   2.50  112.0   67.8   38.3    2.5   2.50   1.08    0.00    0.74
 1982 223    59    57  107.0    0.0  107.0   0.00   2.40  112.9   66.7   40.2    2.4   2.40   1.06    0.00    0.78
 1982 224    60    58  107.8    0.0  107.8   0.00   2.32  113.8   66.0   41.8    2.3   2.32   1.05    0.00    0.81
 1982 225    61    59  108.5    0.0  108.5   0.00   2.25  114.5   65.2   43.3    2.2   2.25   1.04    0.00    0.84
 1982 226    62    60  109.0    0.0  109.0   0.00   2.21  115.0   64.8   44.2    2.2   2.21   1.03    0.00    0.87
 1982 227    63    61  109.6    0.0  109.6   0.00   2.15  115.7   64.2   45.4    2.2   2.15   1.02    0.00    0.91
 1982 228    64    62  110.2    0.0  110.2   0.00   2.10  116.4   63.8   46.4    2.1   2.10   1.01    0.00    0.94
 1982 229    65    63  110.7    0.0  110.7   0.00   2.05  116.9   63.5   47.2    2.1   2.05   1.00    0.00    0.97
 1982 230    66    64  111.2    0.0  111.2   0.00   2.02  117.5   63.5   47.7    2.0   2.02   0.96    0.00    1.00
 1982 231    67    65  111.6    0.0  111.6   0.00   1.99  118.0   63.3   48.3    2.0   1.99   0.95    0.00    1.04
 1982 232    68    66  112.1    0.0  112.1   0.00   1.97  118.5   63.6   48.6    2.0   1.97   0.93    0.00    1.07
 1982 233    69    67  112.6    0.0  112.6   0.00   1.95  119.1   64.0   48.6    2.0   1.95   0.89    0.00    1.10
 1982 234    70    68  113.1    0.0  113.1   0.00   1.94  119.7   64.7   48.4    1.9   1.94   0.86    0.00    1.14
 1982 235    71    69  113.6    0.0  113.6   0.00   1.93  120.2   65.3   48.3    1.9   1.93   0.84    0.00    1.17
 1982 236    72    70  114.0    0.0  114.0   0.00   1.92  120.8   64.2   49.8    1.9   1.92   0.84    0.00    1.20
 1982 237    73    71  114.5    0.0  114.5   0.00   1.91  121.3   63.2   51.4    1.9   1.91   0.84    0.00    1.24
 1982 238    74    72  114.8    0.0  114.8   0.00   1.90  121.7   62.1   52.7    1.9   1.90   0.83    0.00    1.27
 1982 239    75    73  115.2    0.0  115.2   0.00   1.90  122.2   61.2   54.0    1.9   1.90   0.83    0.00    1.31
 1982 240    76    74  115.7    0.0  115.7   0.00   1.89  122.7   60.3   55.4    1.9   1.89   0.83    0.00    1.34
 1982 241    77    75  116.1    0.0  116.1   0.00   1.89  123.2   59.3   56.8    1.9   1.89   0.83    0.00    1.38
 1982 242    78    76  116.5    0.0  116.5   0.00   1.89  123.7   58.3   58.2    1.9   1.89   0.83    0.00    1.41
 1982 243    79    77  117.0    0.0  117.0   0.00   1.89  124.3   57.4   59.6    1.9   1.89   0.83    0.00    1.45
 1982 244    80    78  117.3    0.0  117.3   0.00   1.90  124.7   56.6   60.7    1.9   1.90   0.83    0.00    1.48
 1982 245    81    79  117.7    0.0  117.7   0.00   1.90  125.2   55.8   61.8    1.9   1.90   0.83    0.00    1.52
 1982 246    82    80  118.1    0.0  118.1   0.00   1.92  125.8   55.1   63.0    1.9   1.92   0.84    0.00    1.56
 1982 247    83    81  118.4    0.0  118.4   0.00   1.93  126.3   54.3   64.1    1.9   1.93   0.85    0.00    1.59
 1982 248    84    82  118.7    0.0  118.7   0.00   1.94  126.8   53.5   65.2    1.9   1.94   0.87    0.00    1.63
 1982 249    85    83  118.7    1.8  116.9   1.70   1.91  127.3   52.7   64.2    1.9   1.91   0.87    0.00    1.67
 1982 250    86    84  118.9    3.6  115.3   1.70   1.89  127.8   52.0   63.3    1.9   1.89   0.85    0.00    1.71
 1982 251    87    85  119.1    5.4  113.7   1.70   1.86  128.3   51.3   62.5    1.9   1.86   0.83    0.00    1.75
 1982 252    88    86  119.3    7.2  112.1   1.70   1.83  128.9   50.5   61.6    1.8   1.83   0.81    0.00    1.80
 1982 253    89    87  119.5    9.0  110.4   1.70   1.81  129.4   49.8   60.7    1.8   1.81   0.81    0.00    1.84
 1982 254    90    88  119.6   10.8  108.8   1.70   1.78  129.8   49.0   59.7    1.8   1.78   0.80    0.00    1.89
 1982 255    91    89  119.7   12.7  107.1   1.70   1.75  130.3   48.3   58.8    1.8   1.75   0.81    0.00    1.94
 1982 256    92    90  119.9   14.5  105.4   1.70   1.72  130.7   47.5   57.9    1.7   1.72   0.81    0.00    1.99
 1982 257    93    91  120.0   16.3  103.7   1.70   1.70  131.2   46.8   57.0    1.7   1.70   0.82    0.00    2.04
 1982 258    94    92  120.1   18.1  102.0   1.70   1.67  131.5   46.0   56.0    1.7   1.67   0.81    0.00    2.09
 1982 259    95    93  120.3   19.9  100.4   1.70   1.64  131.9   45.2   55.1    1.6   1.64   0.81    0.00    2.14
 1982 260    96    94  120.4   21.7   98.7   1.70   1.61  132.4   44.5   54.2    1.6   1.61   0.80    0.00    2.20
 1982 261    97    95  120.6   23.5   97.1   1.70   1.59  132.8   43.8   53.3    1.6   1.59   0.78    0.00    2.25
 1982 262    98    96  120.8   25.3   95.5   1.70   1.56  133.3   43.0   52.5    1.6   1.56   0.77    0.00    2.31
 1982 263    99    97  121.0   27.1   93.9   1.70   1.54  133.7   42.3   51.6    1.5   1.54   0.77    0.00    2.37
 1982 264   100    98  121.2   28.9   92.2   1.70   1.51  134.2   41.6   50.7    1.5   1.51   0.76    0.00    2.43
 1982 265   101    99  121.3   30.7   90.6   1.70   1.48  134.6   40.8   49.8    1.5   1.48   0.76    0.00    2.49
 1982 266   102   100  121.5   32.5   89.0   1.70   1.46  135.0   40.1   48.9    1.5   1.46   0.75    0.00    2.55
 1982 267   103   101  121.6   34.3   87.3   1.70   1.43  135.4   39.4   48.0    1.4   1.43   0.74    0.00    2.61
 1982 268   104   102  121.7   36.1   85.7   1.70   1.40  135.7   38.6   47.1    1.4   1.40   0.72    0.00    2.67
 1982 269   105   103  121.8   37.8   84.0   1.69   1.37  136.0   37.9   46.1    1.4   1.37   0.72    0.00    2.73
 1982 270   106   104  121.9   39.6   82.3   1.69   1.35  136.3   37.1   45.2    1.3   1.35   0.71    0.00    2.80
 1982 271   107   105  122.0   41.3   80.6   1.69   1.32  136.5   36.3   44.3    1.3   1.32   0.70    0.00    2.86
 1982 272   108   106  122.0   42.9   79.1   1.69   1.29  136.6   35.7   43.4    1.3   1.29   0.70    0.00    2.93
 1982 273   109   107  122.0   44.1   77.9   1.69   1.27  136.8   35.1   42.8    1.3   1.27   0.70    0.00    2.99
 1982 274   110   108  122.0   45.2   76.8   1.69   1.26  136.9   34.6   42.2    1.3   1.26   0.70    0.00    3.06
 1982 275   111   109  122.0   46.3   75.8   1.70   1.24  137.0   34.1   41.6    1.2   1.24   0.71    0.00    3.12
 1982 276   112   110  122.0   47.3   74.7   1.70   1.22  137.1   33.7   41.0    1.2   1.22   0.71    0.00    3.19
 1982 277   113   111  122.0   48.3   73.7   1.70   1.21  137.1   33.3   40.4    1.2   1.21   0.72    0.00    3.25
 1982 278   114   112  122.0   49.3   72.7   1.70   1.19  137.2   32.9   39.8    1.2   1.19   0.72    0.00    3.32
 1982 279   115   113  121.9   50.3   71.7   1.70   1.18  137.2   32.6   39.1    1.2   1.18   0.72    0.00    3.39
 1982 280   116   114  121.9   51.2   70.7   1.70   1.17  137.2   32.3   38.4    1.2   1.17   0.73    0.00    3.45
 1982 281   117   115  122.3   52.2   70.1   1.70   1.17  137.9   32.2   37.9    1.2   1.17   0.75    0.00    3.52
 1982 282   118   116  122.3   53.9   68.4   1.70   1.12  138.1   31.0   37.4    1.1   1.12   0.74    0.00    3.59
 1982 283   119   117  122.4   55.6   66.8   1.70   1.09  138.3   30.1   36.7    1.1   1.09   0.73    0.00    3.65
 1982 284   120   118  122.5   57.2   65.2   1.69   1.07  138.6   29.4   35.8    1.1   1.07   0.72    0.00    3.72
 1982 285   121   119  122.5   58.9   63.7   1.69   1.04  138.8   28.7   35.0    1.0   1.04   0.72    0.00    3.79
 1982 286   122   120  122.6   60.0   62.6   1.69   1.02  139.1   28.2   34.4    1.0   1.02   0.72    0.00    3.86
 1982 287   123   121  122.7   61.6   61.1   1.68   1.00  139.2   27.5   33.5    1.0   1.00   0.72    0.00    3.93
 1982 288   124   122  122.7   63.1   59.6   1.68   0.97  139.4   26.9   32.7    1.0   0.97   0.71    0.00    4.00
 1982 289   125   123  122.8   64.6   58.2   1.67   0.95  139.6   26.2   31.9    1.0   0.95   0.71    0.00    4.07
 1982 290   126   124  122.8   65.8   57.0   1.67   0.93  139.8   25.7   31.3    0.9   0.93   0.71    0.00    4.14
 1982 291   127   125  122.8   66.7   56.1   1.66   0.92  139.9   25.3   30.8    0.9   0.92   0.72    0.00    4.21
 1982 292   128   126  122.8   67.6   55.2   1.66   0.90  140.0   24.9   30.3    0.9   0.90   0.72    0.00    4.28
 1982 293   129   127  122.8   68.5   54.4   1.66   0.89  140.1   24.6   29.8    0.9   0.89   0.73    0.00    4.35
 1982 294   130   128  122.8   69.3   53.5   1.66   0.88  140.1   24.3   29.2    0.9   0.88   0.73    0.00    4.42
 1982 295   131   129  122.8   70.1   52.7   1.65   0.87  140.2   24.0   28.7    0.9   0.87   0.73    0.00    4.49
 1982 296   132   130  122.7   70.9   51.8   1.65   0.86  140.2   23.7   28.1    0.9   0.86   0.74    0.00    4.57
 1982 297   133   131  122.7   71.7   51.0   1.65   0.85  140.2   23.5   27.5    0.9   0.85   0.74    0.00    4.64
 1982 298   134   132  122.6   72.4   50.2   1.65   0.84  140.2   23.3   26.9    0.8   0.84   0.75    0.00    4.71
 1982 299   135   133  122.6   73.2   49.4   1.65   0.84  140.2   23.1   26.3    0.8   0.84   0.75    0.00    4.78
 1982 300   136   134  122.5   73.9   48.6   1.65   0.83  140.2   22.9   25.7    0.8   0.83   0.75    0.00    4.85
 1982 301   137   135  122.5   73.9   48.6   1.65   0.83  140.2   22.9   25.7    0.8   0.83   0.75    0.00    4.85
 1982 302   138   136  122.5   73.9   48.6   1.65   0.83  140.2   22.9   25.7    0.8   0.83   0.75    0.00    4.85
 1982 303   139   137  122.5   73.9   48.6   1.65   0.83  140.2   22.9   25.7    0.8   0.83   0.75    0.00    4.85
 1982 304   140   138  122.5   73.9   48.6   1.65   0.83  140.2   22.9   25.7    0.8   0.83   0.75    0.00    4.85
 1982 305   141   139  122.5   73.9   48.6   1.65   0.83  140.2   22.9   25.7    0.8   0.83   0.75    0.00    4.85

*DSSAT Cropping System Model Ver. 4.7.5.008 -release  JAN 07, 2021 20:14:37

*RUN   3        : ERiMA DCC1                MZCER047 ETMZmelk    1
 MODEL          : MZCER047 - Maize
 EXPERIMENT     : ETMZmelk SN MELKSSAL
 DATA PATH      : C:\IRI\Python_Dash\ET_DSS_hist\TEST\
 TREATMENT  1   : ERiMA DCC1                MZCER047
  
@YEAR DOY   DAS   DAP   CNAD   GNAD   VNAD   GN%D   VN%D   NUPC   LNAD   SNAD   LN%D   SN%D   RN%D   SNN0C   SNN1C
 1983 166     2     0    0.0    0.0    0.0   0.00   0.00    0.0    0.0    0.0    0.0   0.00   0.00    0.00    0.00
 1983 167     3     1    0.0    0.0    0.0   0.00   0.00    0.0    0.0    0.0    0.0   0.00   0.00    0.00    0.00
 1983 168     4     2    0.0    0.0    0.0   0.00   0.00    0.0    0.0    0.0    0.0   0.00   0.00    0.00    0.00
 1983 169     5     3    0.0    0.0    0.0   0.00   0.00    0.0    0.0    0.0    0.0   0.00   0.00    0.00    0.00
 1983 170     6     4    0.0    0.0    0.0   0.00   0.00    0.0    0.0    0.0    0.0   0.00   0.00    0.00    0.00
 1983 171     7     5    0.0    0.0    0.0   0.00   0.00    0.0    0.0    0.0    0.0   0.00   0.00    0.00    0.00
 1983 172     8     6    1.1    0.0    1.1   0.00   4.40    0.0    0.5    0.5    4.4   4.40   2.20    0.00    0.00
 1983 173     9     7    1.1    0.0    1.1   0.00   4.40    0.0    0.5    0.5    4.4   4.40   2.14    0.00    0.00
 1983 174    10     8    1.1    0.0    1.1   0.00   4.40    0.0    0.5    0.5    4.4   4.40   2.03    0.00    0.00
 1983 175    11     9    1.1    0.0    1.1   0.00   4.40    0.0    0.5    0.5    4.4   4.40   1.87    0.00    0.00
 1983 176    12    10    1.1    0.0    1.1   0.00   4.40    0.0    0.5    0.5    4.4   4.40   1.72    0.00    0.00
 1983 177    13    11    1.1    0.0    1.1   0.00   4.20    0.0    0.6    0.5    4.2   4.20   1.51    0.00    0.00
 1983 178    14    12    1.1    0.0    1.1   0.00   3.27    0.0    0.7    0.4    3.3   3.27   1.43    0.00    0.00
 1983 179    15    13    1.4    0.0    1.4   0.00   3.42    0.3    0.9    0.4    3.4   3.42   1.18    0.00    0.00
 1983 180    16    14    1.6    0.0    1.6   0.00   3.33    0.6    1.2    0.4    3.3   3.33   1.25    0.00    0.00
 1983 181    17    15    2.0    0.0    2.0   0.00   3.34    1.1    1.6    0.4    3.3   3.34   1.36    0.00    0.00
 1983 182    18    16    2.5    0.0    2.5   0.00   3.22    1.5    2.1    0.4    3.2   3.22   1.34    0.00    0.01
 1983 183    19    17    3.1    0.0    3.1   0.00   3.21    2.3    2.7    0.4    3.2   3.21   1.44    0.00    0.01
 1983 184    20    18    3.8    0.0    3.8   0.00   3.27    3.2    3.4    0.4    3.3   3.27   1.46    0.00    0.01
 1983 185    21    19    4.6    0.0    4.6   0.00   3.24    4.0    4.2    0.4    3.2   3.24   1.41    0.00    0.01
 1983 186    22    20    5.5    0.0    5.5   0.00   3.36    5.2    5.1    0.4    3.4   3.36   1.51    0.00    0.02
 1983 187    23    21    6.3    0.0    6.3   0.00   3.18    6.1    6.0    0.4    3.2   3.18   1.36    0.00    0.02
 1983 188    24    22    7.6    0.0    7.6   0.00   3.17    7.6    7.3    0.4    3.2   3.17   1.35    0.00    0.03
 1983 189    25    23   11.6    0.0   11.6   0.00   4.06   11.9   11.1    0.5    4.1   4.06   1.40    0.00    0.03
 1983 190    26    24   13.5    0.0   13.5   0.00   4.00   14.1   13.1    0.5    4.0   4.00   1.37    0.00    0.04
 1983 191    27    25   15.5    0.0   15.5   0.00   3.88   16.3   15.0    0.5    3.9   3.88   1.34    0.00    0.05
 1983 192    28    26   17.3    0.0   17.3   0.00   3.75   18.4   16.8    0.5    3.8   3.75   1.35    0.00    0.06
 1983 193    29    27   19.9    0.0   19.9   0.00   3.71   21.4   19.3    0.6    3.7   3.71   1.33    0.00    0.07
 1983 194    30    28   22.2    0.0   22.2   0.00   3.63   24.1   21.6    0.7    3.6   3.63   1.30    0.00    0.09
 1983 195    31    29   24.6    0.0   24.6   0.00   3.57   26.8   23.7    0.8    3.6   3.57   1.29    0.00    0.10
 1983 196    32    30   28.0    0.0   28.0   0.00   3.55   30.5   26.9    1.1    3.6   3.55   1.26    0.00    0.12
 1983 197    33    31   31.4    0.0   31.4   0.00   3.50   33.9   29.9    1.5    3.5   3.50   1.17    0.00    0.14
 1983 198    34    32   34.4    0.0   34.4   0.00   3.43   37.3   32.4    2.0    3.4   3.43   1.22    0.00    0.16
 1983 199    35    33   38.0    0.0   38.0   0.00   3.39   40.7   35.4    2.6    3.4   3.39   1.12    0.00    0.18
 1983 200    36    34   41.3    0.0   41.3   0.00   3.34   45.2   38.0    3.3    3.3   3.34   1.30    0.00    0.20
 1983 201    37    35   44.8    0.0   44.8   0.00   3.30   48.8   40.6    4.1    3.3   3.30   1.23    0.00    0.22
 1983 202    38    36   48.4    0.0   48.4   0.00   3.25   52.8   43.3    5.1    3.3   3.25   1.22    0.00    0.25
 1983 203    39    37   52.1    0.0   52.1   0.00   3.21   56.6   45.9    6.3    3.2   3.21   1.17    0.00    0.27
 1983 204    40    38   55.8    0.0   55.8   0.00   3.17   60.8   48.4    7.5    3.2   3.17   1.19    0.00    0.30
 1983 205    41    39   60.1    0.0   60.1   0.00   3.14   65.1   51.1    9.0    3.1   3.14   1.15    0.00    0.33
 1983 206    42    40   64.5    0.0   64.5   0.00   3.10   69.8   53.8   10.7    3.1   3.10   1.15    0.00    0.36
 1983 207    43    41   69.5    0.0   69.5   0.00   3.06   75.2   56.7   12.8    3.1   3.06   1.16    0.00    0.39
 1983 208    44    42   72.3    0.0   72.3   0.00   2.96   78.0   57.8   14.5    3.0   2.96   1.12    0.00    0.43
 1983 209    45    43   73.5    0.0   73.5   0.00   2.79   79.3   57.5   16.0    2.8   2.79   1.10    0.00    0.46
 1983 210    46    44   74.6    0.0   74.6   0.00   2.62   80.3   57.0   17.6    2.6   2.62   1.08    0.00    0.49
 1983 211    47    45   84.4    0.0   84.4   0.00   2.75   90.4   63.0   21.4    2.8   2.75   1.09    0.00    0.52
 1983 212    48    46   91.9    0.0   91.9   0.00   2.85   98.1   67.5   24.5    2.8   2.85   1.09    0.00    0.56
 1983 213    49    47   97.6    0.0   97.6   0.00   2.83  103.9   70.1   27.5    2.8   2.83   1.10    0.00    0.59
 1983 214    50    48  100.3    0.0  100.3   0.00   2.70  106.7   71.1   29.3    2.7   2.70   1.09    0.00    0.63
 1983 215    51    49  103.3    0.0  103.3   0.00   2.60  109.8   71.7   31.6    2.6   2.60   1.08    0.00    0.66
 1983 216    52    50  106.1    0.0  106.1   0.00   2.53  112.7   72.0   34.1    2.5   2.53   1.08    0.00    0.70
 1983 217    53    51  107.7    0.0  107.7   0.00   2.41  114.4   71.2   36.5    2.4   2.41   1.06    0.00    0.74
 1983 218    54    52  108.4    0.0  108.4   0.00   2.30  115.2   70.0   38.4    2.3   2.30   1.05    0.00    0.77
 1983 219    55    53  109.4    0.0  109.4   0.00   2.22  116.2   69.2   40.1    2.2   2.22   1.02    0.00    0.81
 1983 220    56    54  110.1    0.0  110.1   0.00   2.16  117.0   68.6   41.5    2.2   2.16   1.02    0.00    0.85
 1983 221    57    55  110.7    0.0  110.7   0.00   2.09  117.6   67.7   43.0    2.1   2.09   0.99    0.00    0.88
 1983 222    58    56  111.3    0.0  111.3   0.00   2.04  118.2   67.2   44.1    2.0   2.04   0.97    0.00    0.92
 1983 223    59    57  111.8    0.0  111.8   0.00   1.99  118.9   66.7   45.1    2.0   1.99   0.97    0.00    0.96
 1983 224    60    58  112.4    0.0  112.4   0.00   1.96  119.4   66.4   46.0    2.0   1.96   0.96    0.00    0.99
 1983 225    61    59  112.9    0.0  112.9   0.00   1.93  120.1   66.1   46.8    1.9   1.93   0.96    0.00    1.03
 1983 226    62    60  113.5    0.0  113.5   0.00   1.91  120.7   66.0   47.5    1.9   1.91   0.96    0.00    1.07
 1983 227    63    61  114.0    0.0  114.0   0.00   1.90  121.3   65.9   48.1    1.9   1.90   0.96    0.00    1.10
 1983 228    64    62  114.5    0.0  114.5   0.00   1.87  121.8   65.9   48.6    1.9   1.87   0.95    0.00    1.14
 1983 229    65    63  115.1    0.0  115.1   0.00   1.85  122.4   66.1   49.0    1.9   1.85   0.95    0.00    1.18
 1983 230    66    64  115.5    0.0  115.5   0.00   1.84  122.9   66.3   49.2    1.8   1.84   0.94    0.00    1.22
 1983 231    67    65  115.9    0.0  115.9   0.00   1.83  123.3   66.8   49.0    1.8   1.83   0.91    0.00    1.25
 1983 232    68    66  116.3    0.0  116.3   0.00   1.81  123.9   65.5   50.9    1.8   1.81   0.91    0.00    1.29
 1983 233    69    67  116.8    0.0  116.8   0.00   1.81  124.4   64.7   52.2    1.8   1.81   0.91    0.00    1.33
 1983 234    70    68  117.3    0.0  117.3   0.00   1.80  124.9   63.7   53.6    1.8   1.80   0.90    0.00    1.37
 1983 235    71    69  117.7    0.0  117.7   0.00   1.80  125.4   62.8   54.9    1.8   1.80   0.90    0.00    1.40
 1983 236    72    70  118.2    0.0  118.2   0.00   1.81  125.9   62.4   55.8    1.8   1.81   0.91    0.00    1.44
 1983 237    73    71  118.6    0.0  118.6   0.00   1.81  126.4   61.6   57.0    1.8   1.81   0.91    0.00    1.48
 1983 238    74    72  119.0    0.0  119.0   0.00   1.81  126.9   60.7   58.3    1.8   1.81   0.90    0.00    1.52
 1983 239    75    73  119.3    0.0  119.3   0.00   1.81  127.3   59.8   59.6    1.8   1.81   0.90    0.00    1.56
 1983 240    76    74  119.8    0.0  119.8   0.00   1.82  127.8   58.9   60.9    1.8   1.82   0.90    0.00    1.60
 1983 241    77    75  120.2    0.0  120.2   0.00   1.82  128.3   58.1   62.1    1.8   1.82   0.90    0.00    1.64
 1983 242    78    76  120.5    0.0  120.5   0.00   1.83  128.7   57.4   63.2    1.8   1.83   0.90    0.00    1.67
 1983 243    79    77  120.8    0.0  120.8   0.00   1.85  129.1   56.6   64.2    1.8   1.85   0.90    0.00    1.71
 1983 244    80    78  121.1    0.0  121.1   0.00   1.86  129.5   55.8   65.3    1.9   1.86   0.90    0.00    1.75
 1983 245    81    79  121.3    1.6  119.8   1.70   1.84  129.9   55.2   64.6    1.8   1.84   0.88    0.00    1.79
 1983 246    82    80  121.6    3.1  118.5   1.70   1.82  130.4   54.6   63.9    1.8   1.82   0.85    0.00    1.83
 1983 247    83    81  121.9    4.7  117.2   1.70   1.80  130.9   54.0   63.2    1.8   1.80   0.82    0.00    1.87
 1983 248    84    82  122.1    6.2  115.9   1.70   1.78  131.4   53.4   62.5    1.8   1.78   0.81    0.00    1.92
 1983 249    85    83  122.4    7.8  114.5   1.70   1.76  131.8   52.8   61.8    1.8   1.76   0.79    0.00    1.96
 1983 250    86    84  122.6    9.4  113.2   1.70   1.74  132.3   52.2   61.1    1.7   1.74   0.78    0.00    2.00
 1983 251    87    85  122.8   10.9  111.9   1.70   1.72  132.8   51.5   60.3    1.7   1.72   0.76    0.00    2.05
 1983 252    88    86  122.9   12.5  110.4   1.70   1.70  133.1   50.9   59.6    1.7   1.70   0.76    0.00    2.10
 1983 253    89    87  123.1   14.1  109.1   1.70   1.67  133.6   50.2   58.8    1.7   1.67   0.75    0.00    2.14
 1983 254    90    88  123.3   15.6  107.7   1.70   1.65  134.0   49.6   58.1    1.7   1.65   0.75    0.00    2.19
 1983 255    91    89  123.4   17.2  106.3   1.70   1.63  134.4   48.9   57.3    1.6   1.63   0.74    0.00    2.24
 1983 256    92    90  123.5   18.7  104.8   1.70   1.61  134.7   48.3   56.5    1.6   1.61   0.73    0.00    2.29
 1983 257    93    91  123.7   20.3  103.4   1.70   1.59  135.2   47.6   55.8    1.6   1.59   0.73    0.00    2.34
 1983 258    94    92  123.9   21.9  102.0   1.70   1.57  135.7   47.0   55.0    1.6   1.57   0.74    0.00    2.39
 1983 259    95    93  124.1   23.4  100.6   1.70   1.54  136.2   46.3   54.3    1.5   1.54   0.74    0.00    2.45
 1983 260    96    94  124.2   25.0   99.2   1.70   1.52  136.7   45.7   53.5    1.5   1.52   0.74    0.00    2.50
 1983 261    97    95  124.4   26.6   97.8   1.70   1.50  137.1   45.1   52.8    1.5   1.50   0.75    0.00    2.56
 1983 262    98    96  124.5   28.1   96.4   1.70   1.48  137.6   44.4   52.0    1.5   1.48   0.75    0.00    2.62
 1983 263    99    97  124.7   29.7   95.0   1.70   1.46  138.0   43.8   51.2    1.5   1.46   0.75    0.00    2.68
 1983 264   100    98  124.8   31.2   93.6   1.70   1.44  138.5   43.1   50.5    1.4   1.44   0.75    0.00    2.74
 1983 265   101    99  125.0   32.8   92.2   1.70   1.42  138.9   42.5   49.7    1.4   1.42   0.74    0.00    2.80
 1983 266   102   100  125.2   34.3   90.8   1.70   1.39  139.4   41.8   49.0    1.4   1.39   0.74    0.00    2.86
 1983 267   103   101  125.3   35.9   89.4   1.70   1.37  139.8   41.2   48.2    1.4   1.37   0.73    0.00    2.92
 1983 268   104   102  125.5   37.4   88.0   1.70   1.35  140.3   40.5   47.5    1.4   1.35   0.73    0.00    2.99
 1983 269   105   103  125.6   39.0   86.7   1.70   1.33  140.7   39.9   46.7    1.3   1.33   0.73    0.00    3.05
 1983 270   106   104  125.8   40.5   85.3   1.69   1.31  141.2   39.3   46.0    1.3   1.31   0.73    0.00    3.12
 1983 271   107   105  126.0   42.0   83.9   1.69   1.29  141.7   38.7   45.3    1.3   1.29   0.73    0.00    3.19
 1983 272   108   106  126.1   43.5   82.6   1.69   1.27  142.1   38.0   44.5    1.3   1.27   0.73    0.00    3.26
 1983 273   109   107  126.2   45.1   81.2   1.69   1.25  142.5   37.4   43.8    1.2   1.25   0.73    0.00    3.33
 1983 274   110   108  126.4   46.6   79.8   1.69   1.23  142.9   36.8   43.1    1.2   1.23   0.72    0.00    3.40
 1983 275   111   109  126.5   48.0   78.5   1.69   1.20  143.3   36.1   42.3    1.2   1.20   0.72    0.00    3.47
 1983 276   112   110  126.6   49.5   77.1   1.68   1.18  143.6   35.5   41.6    1.2   1.18   0.72    0.00    3.54
 1983 277   113   111  126.7   51.0   75.7   1.68   1.16  144.0   34.9   40.9    1.2   1.16   0.72    0.00    3.62
 1983 278   114   112  126.9   52.5   74.4   1.68   1.14  144.4   34.3   40.1    1.1   1.14   0.71    0.00    3.69
 1983 279   115   113  127.0   53.9   73.0   1.68   1.12  144.7   33.6   39.4    1.1   1.12   0.71    0.00    3.77
 1983 280   116   114  127.1   55.4   71.7   1.67   1.10  145.0   33.0   38.7    1.1   1.10   0.71    0.00    3.84
 1983 281   117   115  127.2   56.8   70.4   1.67   1.08  145.4   32.4   38.0    1.1   1.08   0.71    0.00    3.92
 1983 282   118   116  127.3   58.2   69.0   1.67   1.06  145.6   31.8   37.2    1.1   1.06   0.71    0.00    4.00
 1983 283   119   117  127.3   59.6   67.7   1.66   1.04  145.9   31.2   36.5    1.0   1.04   0.70    0.00    4.08
 1983 284   120   118  127.3   61.0   66.3   1.66   1.02  146.1   30.6   35.8    1.0   1.02   0.70    0.00    4.16
 1983 285   121   119  127.4   62.4   65.0   1.66   1.00  146.2   29.9   35.0    1.0   1.00   0.69    0.00    4.24
 1983 286   122   120  127.4   63.5   63.9   1.65   0.98  146.4   29.4   34.5    1.0   0.98   0.69    0.00    4.32
 1983 287   123   121  127.4   64.5   62.9   1.65   0.97  146.5   29.0   33.9    1.0   0.97   0.69    0.00    4.40
 1983 288   124   122  127.4   65.4   62.0   1.65   0.95  146.6   28.5   33.4    1.0   0.95   0.69    0.00    4.48
 1983 289   125   123  127.4   66.3   61.1   1.65   0.94  146.8   28.1   33.0    0.9   0.94   0.70    0.00    4.56
 1983 290   126   124  127.5   67.3   60.2   1.65   0.92  147.0   27.7   32.5    0.9   0.92   0.71    0.00    4.64
 1983 291   127   125  127.5   68.6   58.8   1.65   0.90  147.1   27.1   31.7    0.9   0.90   0.71    0.00    4.72
 1983 292   128   126  127.4   69.9   57.5   1.64   0.88  147.2   26.5   31.0    0.9   0.88   0.71    0.00    4.80
 1983 293   129   127  127.4   70.7   56.7   1.64   0.87  147.2   26.2   30.5    0.9   0.87   0.71    0.00    4.88
 1983 294   130   128  127.3   71.4   56.0   1.64   0.86  147.2   25.9   30.0    0.9   0.86   0.71    0.00    4.96
 1983 295   131   129  127.3   72.1   55.2   1.64   0.86  147.3   25.7   29.5    0.9   0.86   0.72    0.00    5.04
 1983 296   132   130  127.2   72.8   54.5   1.64   0.85  147.3   25.4   29.0    0.8   0.85   0.72    0.00    5.12
 1983 297   133   131  127.2   73.5   53.7   1.64   0.84  147.3   25.2   28.5    0.8   0.84   0.72    0.00    5.21
 1983 298   134   132  127.2   73.5   53.7   1.64   0.84  147.3   25.2   28.5    0.8   0.84   0.72    0.00    5.21
 1983 299   135   133  127.2   73.5   53.7   1.64   0.84  147.3   25.2   28.5    0.8   0.84   0.72    0.00    5.21
 1983 300   136   134  127.2   73.5   53.7   1.64   0.84  147.3   25.2   28.5    0.8   0.84   0.72    0.00    5.21
 1983 301   137   135  127.2   73.5   53.7   1.64   0.84  147.3   25.2   28.5    0.8   0.84   0.72    0.00    5.21
 1983 302   138   136  127.2   73.5   53.7   1.64   0.84  147.3   25.2   28.5    0.8   0.84   0.72    0.00    5.21

*DSSAT Cropping System Model Ver. 4.7.5.008 -release  JAN 07, 2021 20:14:37

*RUN   4        : ERiMA DCC1                MZCER047 ETMZmelk    1
 MODEL          : MZCER047 - Maize
 EXPERIMENT     : ETMZmelk SN MELKSSAL
 DATA PATH      : C:\IRI\Python_Dash\ET_DSS_hist\TEST\
 TREATMENT  1   : ERiMA DCC1                MZCER047
  
@YEAR DOY   DAS   DAP   CNAD   GNAD   VNAD   GN%D   VN%D   NUPC   LNAD   SNAD   LN%D   SN%D   RN%D   SNN0C   SNN1C
 1984 166     2     0    0.0    0.0    0.0   0.00   0.00    0.0    0.0    0.0    0.0   0.00   0.00    0.00    0.00
 1984 167     3     1    0.0    0.0    0.0   0.00   0.00    0.0    0.0    0.0    0.0   0.00   0.00    0.00    0.00
 1984 168     4     2    0.0    0.0    0.0   0.00   0.00    0.0    0.0    0.0    0.0   0.00   0.00    0.00    0.00
 1984 169     5     3    0.0    0.0    0.0   0.00   0.00    0.0    0.0    0.0    0.0   0.00   0.00    0.00    0.00
 1984 170     6     4    0.0    0.0    0.0   0.00   0.00    0.0    0.0    0.0    0.0   0.00   0.00    0.00    0.00
 1984 171     7     5    0.0    0.0    0.0   0.00   0.00    0.0    0.0    0.0    0.0   0.00   0.00    0.00    0.00
 1984 172     8     6    1.1    0.0    1.1   0.00   4.40    0.0    0.5    0.5    4.4   4.40   2.20    0.00    0.00
 1984 173     9     7    1.1    0.0    1.1   0.00   4.40    0.0    0.5    0.5    4.4   4.40   2.17    0.00    0.00
 1984 174    10     8    1.1    0.0    1.1   0.00   4.40    0.0    0.5    0.5    4.4   4.40   2.09    0.00    0.00
 1984 175    11     9    1.1    0.0    1.1   0.00   4.40    0.0    0.5    0.5    4.4   4.40   1.97    0.00    0.00
 1984 176    12    10    1.1    0.0    1.1   0.00   4.40    0.0    0.5    0.5    4.4   4.40   1.80    0.00    0.00
 1984 177    13    11    1.1    0.0    1.1   0.00   4.40    0.0    0.5    0.5    4.4   4.40   1.62    0.00    0.00
 1984 178    14    12    1.1    0.0    1.1   0.00   4.19    0.0    0.6    0.5    4.2   4.19   1.44    0.00    0.00
 1984 179    15    13    1.1    0.0    1.1   0.00   3.34    0.0    0.7    0.4    3.3   3.34   1.37    0.00    0.00
 1984 180    16    14    1.3    0.0    1.3   0.00   3.38    0.3    0.9    0.4    3.4   3.38   1.22    0.00    0.00
 1984 181    17    15    1.6    0.0    1.6   0.00   3.39    0.6    1.2    0.4    3.4   3.39   1.30    0.00    0.00
 1984 182    18    16    2.0    0.0    2.0   0.00   3.37    1.0    1.6    0.4    3.4   3.37   1.34    0.00    0.00
 1984 183    19    17    2.4    0.0    2.4   0.00   3.43    1.6    2.0    0.4    3.4   3.43   1.43    0.00    0.01
 1984 184    20    18    2.8    0.0    2.8   0.00   3.33    2.1    2.4    0.4    3.3   3.33   1.43    0.00    0.01
 1984 185    21    19    3.4    0.0    3.4   0.00   3.47    2.8    3.0    0.4    3.5   3.47   1.43    0.00    0.01
 1984 186    22    20    3.9    0.0    3.9   0.00   3.42    3.4    3.5    0.4    3.4   3.42   1.36    0.00    0.01
 1984 187    23    21    4.5    0.0    4.5   0.00   3.37    4.1    4.1    0.4    3.4   3.37   1.36    0.00    0.02
 1984 188    24    22    5.2    0.0    5.2   0.00   3.33    5.0    4.8    0.4    3.3   3.33   1.36    0.00    0.02
 1984 189    25    23    6.0    0.0    6.0   0.00   3.46    6.2    5.6    0.4    3.5   3.46   1.46    0.00    0.03
 1984 190    26    24    6.8    0.0    6.8   0.00   3.32    7.0    6.4    0.4    3.3   3.32   1.32    0.00    0.04
 1984 191    27    25    7.8    0.0    7.8   0.00   3.25    8.4    7.4    0.4    3.3   3.25   1.35    0.00    0.04
 1984 192    28    26   11.3    0.0   11.3   0.00   4.04   11.9   10.8    0.5    4.0   4.04   1.26    0.00    0.05
 1984 193    29    27   12.8    0.0   12.8   0.00   3.96   13.6   12.3    0.5    4.0   3.96   1.26    0.00    0.06
 1984 194    30    28   14.1    0.0   14.1   0.00   3.83   15.6   13.6    0.5    3.8   3.83   1.39    0.00    0.07
 1984 195    31    29   15.7    0.0   15.7   0.00   3.74   17.4   15.2    0.5    3.7   3.74   1.32    0.00    0.09
 1984 196    32    30   17.4    0.0   17.4   0.00   3.68   19.2   16.9    0.5    3.7   3.68   1.24    0.00    0.10
 1984 197    33    31   19.3    0.0   19.3   0.00   3.64   21.5   18.8    0.6    3.6   3.64   1.25    0.00    0.12
 1984 198    34    32   21.2    0.0   21.2   0.00   3.58   24.1   20.6    0.6    3.6   3.58   1.32    0.00    0.13
 1984 199    35    33   23.2    0.0   23.2   0.00   3.54   26.4   22.4    0.8    3.5   3.54   1.28    0.00    0.15
 1984 200    36    34   25.5    0.0   25.5   0.00   3.50   29.0   24.5    1.0    3.5   3.50   1.25    0.00    0.18
 1984 201    37    35   28.5    0.0   28.5   0.00   3.48   32.2   27.2    1.3    3.5   3.48   1.20    0.00    0.20
 1984 202    38    36   31.5    0.0   31.5   0.00   3.44   35.5   29.8    1.7    3.4   3.44   1.20    0.00    0.22
 1984 203    39    37   33.9    0.0   33.9   0.00   3.38   38.0   31.9    2.1    3.4   3.38   1.15    0.00    0.25
 1984 204    40    38   37.0    0.0   37.0   0.00   3.35   42.2   34.4    2.6    3.3   3.35   1.25    0.00    0.27
 1984 205    41    39   40.8    0.0   40.8   0.00   3.32   46.2   37.4    3.4    3.3   3.32   1.21    0.00    0.31
 1984 206    42    40   43.9    0.0   43.9   0.00   3.26   49.6   39.7    4.2    3.3   3.26   1.18    0.00    0.34
 1984 207    43    41   47.4    0.0   47.4   0.00   3.22   53.6   42.2    5.2    3.2   3.22   1.20    0.00    0.37
 1984 208    44    42   50.9    0.0   50.9   0.00   3.18   57.5   44.6    6.2    3.2   3.18   1.19    0.00    0.41
 1984 209    45    43   55.0    0.0   55.0   0.00   3.15   62.3   47.4    7.6    3.2   3.15   1.21    0.00    0.44
 1984 210    46    44   58.9    0.0   58.9   0.00   3.11   66.5   49.8    9.0    3.1   3.11   1.17    0.00    0.49
 1984 211    47    45   62.8    0.0   62.8   0.00   3.07   70.8   52.2   10.6    3.1   3.07   1.16    0.00    0.53
 1984 212    48    46   67.5    0.0   67.5   0.00   3.04   75.2   54.9   12.5    3.0   3.04   1.11    0.00    0.57
 1984 213    49    47   71.5    0.0   71.5   0.00   2.99   80.0   57.1   14.4    3.0   2.99   1.16    0.00    0.61
 1984 214    50    48   75.8    0.0   75.8   0.00   2.96   84.6   59.3   16.4    3.0   2.96   1.14    0.00    0.66
 1984 215    51    49   80.7    0.0   80.7   0.00   2.93   89.6   61.8   18.9    2.9   2.93   1.11    0.00    0.71
 1984 216    52    50   85.7    0.0   85.7   0.00   2.90   95.4   64.3   21.4    2.9   2.90   1.15    0.00    0.76
 1984 217    53    51   90.1    0.0   90.1   0.00   2.86   99.9   66.3   23.9    2.9   2.86   1.13    0.00    0.81
 1984 218    54    52   95.0    0.0   95.0   0.00   2.82  104.6   69.5   25.5    2.8   2.82   1.09    0.00    0.86
 1984 219    55    53   97.4    0.0   97.4   0.00   2.71  107.0   69.9   27.5    2.7   2.71   1.08    0.00    0.91
 1984 220    56    54   98.8    0.0   98.8   0.00   2.56  108.5   69.0   29.8    2.6   2.56   1.07    0.00    0.96
 1984 221    57    55   99.9    0.0   99.9   0.00   2.44  109.7   68.0   31.9    2.4   2.44   1.07    0.00    1.01
 1984 222    58    56  101.0    0.0  101.0   0.00   2.32  110.8   67.0   34.0    2.3   2.32   1.06    0.00    1.06
 1984 223    59    57  101.9    0.0  101.9   0.00   2.22  111.8   66.1   35.9    2.2   2.22   1.03    0.00    1.11
 1984 224    60    58  102.7    0.0  102.7   0.00   2.14  112.7   65.2   37.5    2.1   2.14   1.00    0.00    1.16
 1984 225    61    59  103.5    0.0  103.5   0.00   2.07  113.6   64.5   39.0    2.1   2.07   0.99    0.00    1.21
 1984 226    62    60  104.2    0.0  104.2   0.00   2.02  114.4   64.0   40.2    2.0   2.02   0.97    0.00    1.26
 1984 227    63    61  104.9    0.0  104.9   0.00   1.97  115.2   63.6   41.3    2.0   1.97   0.95    0.00    1.31
 1984 228    64    62  105.6    0.0  105.6   0.00   1.93  115.9   63.2   42.3    1.9   1.93   0.94    0.00    1.36
 1984 229    65    63  106.2    0.0  106.2   0.00   1.90  116.6   63.1   43.1    1.9   1.90   0.91    0.00    1.42
 1984 230    66    64  106.8    0.0  106.8   0.00   1.88  117.4   63.1   43.7    1.9   1.88   0.89    0.00    1.47
 1984 231    67    65  107.5    0.0  107.5   0.00   1.85  118.1   63.1   44.3    1.9   1.85   0.88    0.00    1.52
 1984 232    68    66  108.0    0.0  108.0   0.00   1.84  118.8   63.4   44.7    1.8   1.84   0.86    0.00    1.57
 1984 233    69    67  108.6    0.0  108.6   0.00   1.83  119.4   63.9   44.7    1.8   1.83   0.83    0.00    1.62
 1984 234    70    68  109.1    0.0  109.1   0.00   1.82  120.1   64.4   44.7    1.8   1.82   0.80    0.00    1.68
 1984 235    71    69  109.6    0.0  109.6   0.00   1.81  120.7   65.0   44.6    1.8   1.81   0.79    0.00    1.73
 1984 236    72    70  110.1    0.0  110.1   0.00   1.78  121.3   64.8   45.2    1.8   1.78   0.78    0.00    1.78
 1984 237    73    71  110.5    0.0  110.5   0.00   1.76  121.9   63.5   47.1    1.8   1.76   0.78    0.00    1.84
 1984 238    74    72  111.0    0.0  111.0   0.00   1.75  122.4   62.2   48.8    1.7   1.75   0.78    0.00    1.89
 1984 239    75    73  111.4    0.0  111.4   0.00   1.73  123.0   61.0   50.4    1.7   1.73   0.78    0.00    1.95
 1984 240    76    74  111.8    0.0  111.8   0.00   1.73  123.5   60.0   51.8    1.7   1.73   0.78    0.00    2.00
 1984 241    77    75  112.2    0.0  112.2   0.00   1.72  123.9   59.0   53.2    1.7   1.72   0.78    0.00    2.05
 1984 242    78    76  112.5    0.0  112.5   0.00   1.71  124.4   58.0   54.5    1.7   1.71   0.78    0.00    2.11
 1984 243    79    77  112.9    0.0  112.9   0.00   1.71  124.9   57.2   55.8    1.7   1.71   0.79    0.00    2.17
 1984 244    80    78  113.3    0.0  113.3   0.00   1.71  125.4   56.2   57.1    1.7   1.71   0.79    0.00    2.22
 1984 245    81    79  113.7    0.0  113.7   0.00   1.71  125.9   55.2   58.4    1.7   1.71   0.79    0.00    2.28
 1984 246    82    80  114.0    0.0  114.0   0.00   1.71  126.3   54.3   59.7    1.7   1.71   0.79    0.00    2.33
 1984 247    83    81  114.3    0.0  114.3   0.00   1.72  126.7   53.4   60.9    1.7   1.72   0.80    0.00    2.39
 1984 248    84    82  114.5    0.0  114.5   0.00   1.72  127.1   52.5   62.1    1.7   1.72   0.80    0.00    2.45
 1984 249    85    83  114.8    0.0  114.8   0.00   1.73  127.5   51.6   63.2    1.7   1.73   0.80    0.00    2.50
 1984 250    86    84  115.0    0.0  115.0   0.00   1.74  127.8   50.7   64.3    1.7   1.74   0.80    0.00    2.56
 1984 251    87    85  115.2    1.6  113.6   1.61   1.71  128.2   50.0   63.5    1.7   1.71   0.79    0.00    2.62
 1984 252    88    86  115.4    3.3  112.1   1.61   1.69  128.5   49.4   62.7    1.7   1.69   0.78    0.00    2.68
 1984 253    89    87  115.6    4.9  110.7   1.61   1.67  128.9   48.8   61.9    1.7   1.67   0.77    0.00    2.74
 1984 254    90    88  115.8    6.5  109.3   1.61   1.65  129.2   48.1   61.1    1.6   1.65   0.76    0.00    2.80
 1984 255    91    89  116.0    8.2  107.9   1.60   1.63  129.6   47.5   60.3    1.6   1.63   0.75    0.00    2.86
 1984 256    92    90  116.2    9.8  106.4   1.60   1.61  130.0   46.9   59.5    1.6   1.61   0.75    0.00    2.92
 1984 257    93    91  116.4   11.4  105.0   1.60   1.58  130.3   46.3   58.7    1.6   1.58   0.74    0.00    2.98
 1984 258    94    92  116.6   13.0  103.5   1.60   1.56  130.7   45.6   57.9    1.6   1.56   0.73    0.00    3.04
 1984 259    95    93  116.8   14.7  102.1   1.60   1.54  131.1   45.0   57.1    1.5   1.54   0.72    0.00    3.10
 1984 260    96    94  116.9   16.3  100.6   1.60   1.52  131.4   44.3   56.3    1.5   1.52   0.72    0.00    3.16
 1984 261    97    95  117.1   17.9   99.2   1.60   1.50  131.7   43.7   55.5    1.5   1.50   0.71    0.00    3.23
 1984 262    98    96  117.2   19.5   97.7   1.60   1.47  132.1   43.1   54.7    1.5   1.47   0.70    0.00    3.29
 1984 263    99    97  117.4   21.1   96.3   1.60   1.45  132.4   42.4   53.9    1.5   1.45   0.69    0.00    3.35
 1984 264   100    98  117.5   22.6   94.9   1.60   1.43  132.6   41.8   53.1    1.4   1.43   0.69    0.00    3.42
 1984 265   101    99  117.6   23.8   93.7   1.60   1.41  132.8   41.3   52.4    1.4   1.41   0.69    0.00    3.48
 1984 266   102   100  117.6   25.4   92.2   1.60   1.39  133.0   40.6   51.6    1.4   1.39   0.69    0.00    3.55
 1984 267   103   101  117.7   27.0   90.7   1.60   1.37  133.2   40.0   50.7    1.4   1.37   0.68    0.00    3.62
 1984 268   104   102  117.7   28.4   89.4   1.60   1.35  133.4   39.4   50.0    1.3   1.35   0.68    0.00    3.68
 1984 269   105   103  117.8   29.4   88.3   1.61   1.33  133.5   38.9   49.4    1.3   1.33   0.68    0.00    3.75
 1984 270   106   104  117.8   30.4   87.3   1.61   1.32  133.7   38.5   48.9    1.3   1.32   0.69    0.00    3.81
 1984 271   107   105  117.8   31.4   86.4   1.61   1.30  133.7   38.1   48.3    1.3   1.30   0.69    0.00    3.88
 1984 272   108   106  117.8   32.4   85.4   1.62   1.29  133.8   37.7   47.7    1.3   1.29   0.69    0.00    3.95
 1984 273   109   107  117.7   33.3   84.4   1.62   1.28  133.8   37.3   47.1    1.3   1.28   0.70    0.00    4.02
 1984 274   110   108  117.7   34.2   83.4   1.62   1.27  133.9   37.0   46.4    1.3   1.27   0.70    0.00    4.08
 1984 275   111   109  117.6   35.1   82.5   1.62   1.26  133.9   36.8   45.8    1.3   1.26   0.70    0.00    4.15
 1984 276   112   110  117.6   36.0   81.6   1.63   1.25  133.9   36.5   45.1    1.3   1.25   0.71    0.00    4.22
 1984 277   113   111  117.5   36.8   80.7   1.63   1.24  133.9   36.3   44.4    1.2   1.24   0.71    0.00    4.28
 1984 278   114   112  117.5   37.7   79.8   1.63   1.24  133.9   36.1   43.7    1.2   1.24   0.71    0.00    4.35
 1984 279   115   113  117.4   38.6   78.8   1.64   1.23  133.9   35.9   42.9    1.2   1.23   0.72    0.00    4.42
 1984 280   116   114  117.4   39.4   77.9   1.64   1.22  133.9   35.7   42.2    1.2   1.22   0.72    0.00    4.48
 1984 281   117   115  117.3   40.3   77.0   1.64   1.22  133.9   35.5   41.5    1.2   1.22   0.72    0.00    4.55
 1984 282   118   116  117.2   41.2   76.1   1.65   1.21  133.9   35.3   40.8    1.2   1.21   0.73    0.00    4.62
 1984 283   119   117  117.2   42.0   75.2   1.65   1.20  133.9   35.1   40.1    1.2   1.20   0.73    0.00    4.62
 1984 284   120   118  117.2   42.9   74.3   1.65   1.20  133.9   35.0   39.4    1.2   1.20   0.73    0.00    4.62
 1984 285   121   119  117.3   43.8   73.5   1.66   1.19  134.1   34.9   38.6    1.2   1.19   0.74    0.00    4.69
 1984 286   122   120  117.3   44.9   72.4   1.66   1.18  134.2   34.4   38.0    1.2   1.18   0.75    0.00    4.75
 1984 287   123   121  117.3   45.8   71.5   1.67   1.17  134.2   34.2   37.3    1.2   1.17   0.75    0.00    4.75
 1984 288   124   122  117.3   46.7   70.6   1.67   1.16  134.2   34.0   36.6    1.2   1.16   0.76    0.00    4.75
 1984 289   125   123  117.3   47.6   69.7   1.68   1.16  134.2   33.8   35.8    1.2   1.16   0.76    0.00    4.75
 1984 290   126   124  117.3   48.5   68.8   1.68   1.15  134.2   33.6   35.1    1.2   1.15   0.76    0.00    4.75
 1984 291   127   125  117.3   49.4   67.9   1.68   1.15  134.2   33.5   34.4    1.1   1.15   0.77    0.00    4.75
 1984 292   128   126  117.3   50.3   66.9   1.69   1.14  134.2   33.3   33.7    1.1   1.14   0.77    0.00    4.75
 1984 293   129   127  117.3   51.2   66.0   1.69   1.13  134.2   33.1   32.9    1.1   1.13   0.78    0.00    4.75
 1984 294   130   128  117.3   52.1   65.1   1.69   1.13  134.2   32.9   32.2    1.1   1.13   0.78    0.00    4.75
 1984 295   131   129  117.3   52.1   65.1   1.69   1.13  134.2   32.9   32.2    1.1   1.13   0.78    0.00    4.75
 1984 296   132   130  117.3   52.1   65.1   1.69   1.13  134.2   32.9   32.2    1.1   1.13   0.78    0.00    4.75

*DSSAT Cropping System Model Ver. 4.7.5.008 -release  JAN 07, 2021 20:14:37

*RUN   5        : ERiMA DCC1                MZCER047 ETMZmelk    1
 MODEL          : MZCER047 - Maize
 EXPERIMENT     : ETMZmelk SN MELKSSAL
 DATA PATH      : C:\IRI\Python_Dash\ET_DSS_hist\TEST\
 TREATMENT  1   : ERiMA DCC1                MZCER047
  
@YEAR DOY   DAS   DAP   CNAD   GNAD   VNAD   GN%D   VN%D   NUPC   LNAD   SNAD   LN%D   SN%D   RN%D   SNN0C   SNN1C
 1985 166     2     0    0.0    0.0    0.0   0.00   0.00    0.0    0.0    0.0    0.0   0.00   0.00    0.00    0.00
 1985 167     3     1    0.0    0.0    0.0   0.00   0.00    0.0    0.0    0.0    0.0   0.00   0.00    0.00    0.00
 1985 168     4     2    0.0    0.0    0.0   0.00   0.00    0.0    0.0    0.0    0.0   0.00   0.00    0.00    0.00
 1985 169     5     3    0.0    0.0    0.0   0.00   0.00    0.0    0.0    0.0    0.0   0.00   0.00    0.00    0.00
 1985 170     6     4    0.0    0.0    0.0   0.00   0.00    0.0    0.0    0.0    0.0   0.00   0.00    0.00    0.00
 1985 171     7     5    0.0    0.0    0.0   0.00   0.00    0.0    0.0    0.0    0.0   0.00   0.00    0.00    0.00
 1985 172     8     6    1.1    0.0    1.1   0.00   4.40    0.0    0.5    0.5    4.4   4.40   2.20    0.00    0.00
 1985 173     9     7    1.1    0.0    1.1   0.00   4.40    0.0    0.5    0.5    4.4   4.40   2.15    0.00    0.00
 1985 174    10     8    1.1    0.0    1.1   0.00   4.40    0.0    0.5    0.5    4.4   4.40   2.06    0.00    0.00
 1985 175    11     9    1.1    0.0    1.1   0.00   4.40    0.0    0.5    0.5    4.4   4.40   1.93    0.00    0.00
 1985 176    12    10    1.1    0.0    1.1   0.00   4.40    0.0    0.5    0.5    4.4   4.40   1.78    0.00    0.00
 1985 177    13    11    1.1    0.0    1.1   0.00   4.40    0.0    0.5    0.5    4.4   4.40   1.61    0.00    0.00
 1985 178    14    12    1.1    0.0    1.1   0.00   4.13    0.0    0.6    0.5    4.1   4.13   1.46    0.00    0.00
 1985 179    15    13    1.1    0.0    1.1   0.00   3.32    0.0    0.7    0.4    3.3   3.32   1.37    0.00    0.00
 1985 180    16    14    1.3    0.0    1.3   0.00   3.32    0.3    0.9    0.4    3.3   3.32   1.25    0.00    0.00
 1985 181    17    15    1.7    0.0    1.7   0.00   3.40    0.7    1.3    0.4    3.4   3.40   1.38    0.00    0.00
 1985 182    18    16    2.0    0.0    2.0   0.00   3.48    1.1    1.6    0.4    3.5   3.48   1.34    0.00    0.00
 1985 183    19    17    2.4    0.0    2.4   0.00   3.40    1.5    2.0    0.4    3.4   3.40   1.36    0.00    0.01
 1985 184    20    18    2.8    0.0    2.8   0.00   3.42    2.0    2.4    0.4    3.4   3.42   1.30    0.00    0.01
 1985 185    21    19    3.3    0.0    3.3   0.00   3.45    2.5    2.9    0.4    3.5   3.45   1.24    0.00    0.01
 1985 186    22    20    3.8    0.0    3.8   0.00   3.48    3.3    3.4    0.4    3.5   3.48   1.48    0.00    0.01
 1985 187    23    21    4.3    0.0    4.3   0.00   3.38    3.8    3.9    0.4    3.4   3.38   1.24    0.00    0.02
 1985 188    24    22    5.0    0.0    5.0   0.00   3.36    4.7    4.6    0.4    3.4   3.36   1.38    0.00    0.02
 1985 189    25    23    5.8    0.0    5.8   0.00   3.59    5.8    5.4    0.4    3.6   3.59   1.47    0.00    0.03
 1985 190    26    24    6.3    0.0    6.3   0.00   3.32    6.4    5.9    0.4    3.3   3.32   1.34    0.00    0.03
 1985 191    27    25    7.3    0.0    7.3   0.00   3.29    7.5    6.9    0.4    3.3   3.29   1.31    0.00    0.04
 1985 192    28    26   10.3    0.0   10.3   0.00   4.03   10.7    9.8    0.5    4.0   4.03   1.30    0.00    0.05
 1985 193    29    27   11.5    0.0   11.5   0.00   3.94   12.1   11.0    0.5    3.9   3.94   1.28    0.00    0.06
 1985 194    30    28   12.8    0.0   12.8   0.00   3.84   13.7   12.3    0.5    3.8   3.84   1.32    0.00    0.06
 1985 195    31    29   13.8    0.0   13.8   0.00   3.72   15.1   13.3    0.5    3.7   3.72   1.32    0.00    0.08
 1985 196    32    30   15.5    0.0   15.5   0.00   3.69   17.0   15.0    0.5    3.7   3.69   1.28    0.00    0.09
 1985 197    33    31   17.2    0.0   17.2   0.00   3.64   18.9   16.7    0.5    3.6   3.64   1.25    0.00    0.10
 1985 198    34    32   19.2    0.0   19.2   0.00   3.60   21.7   18.6    0.6    3.6   3.60   1.34    0.00    0.12
 1985 199    35    33   21.0    0.0   21.0   0.00   3.54   23.9   20.2    0.7    3.5   3.54   1.32    0.00    0.14
 1985 200    36    34   22.8    0.0   22.8   0.00   3.50   26.3   22.0    0.9    3.5   3.50   1.30    0.00    0.16
 1985 201    37    35   25.0    0.0   25.0   0.00   3.47   27.9   24.0    1.1    3.5   3.47   1.12    0.00    0.18
 1985 202    38    36   28.5    0.0   28.5   0.00   3.46   32.4   27.0    1.5    3.5   3.46   1.27    0.00    0.20
 1985 203    39    37   31.4    0.0   31.4   0.00   3.40   35.5   29.4    2.0    3.4   3.40   1.21    0.00    0.22
 1985 204    40    38   34.0    0.0   34.0   0.00   3.35   38.6   31.5    2.5    3.3   3.35   1.23    0.00    0.25
 1985 205    41    39   36.7    0.0   36.7   0.00   3.31   41.5   33.7    3.0    3.3   3.31   1.17    0.00    0.28
 1985 206    42    40   40.1    0.0   40.1   0.00   3.28   45.0   36.3    3.8    3.3   3.28   1.16    0.00    0.31
 1985 207    43    41   43.2    0.0   43.2   0.00   3.23   48.2   38.6    4.6    3.2   3.23   1.13    0.00    0.34
 1985 208    44    42   44.8    0.0   44.8   0.00   3.08   50.4   39.5    5.4    3.1   3.08   1.13    0.00    0.37
 1985 209    45    43   46.2    0.0   46.2   0.00   2.94   52.1   40.1    6.1    2.9   2.94   1.10    0.00    0.40
 1985 210    46    44   47.6    0.0   47.6   0.00   2.82   53.4   40.7    6.9    2.8   2.82   1.09    0.00    0.43
 1985 211    47    45   56.0    0.0   56.0   0.00   3.07   62.6   47.1    8.9    3.1   3.07   1.16    0.00    0.47
 1985 212    48    46   59.8    0.0   59.8   0.00   3.05   66.9   49.4   10.4    3.0   3.05   1.16    0.00    0.50
 1985 213    49    47   64.1    0.0   64.1   0.00   3.02   70.9   51.9   12.2    3.0   3.02   1.10    0.00    0.54
 1985 214    50    48   68.2    0.0   68.2   0.00   2.98   76.3   54.2   14.0    3.0   2.98   1.20    0.00    0.58
 1985 215    51    49   72.6    0.0   72.6   0.00   2.95   80.2   56.5   16.1    2.9   2.95   1.11    0.00    0.63
 1985 216    52    50   76.1    0.0   76.1   0.00   2.88   84.1   58.0   18.1    2.9   2.88   1.12    0.00    0.67
 1985 217    53    51   78.1    0.0   78.1   0.00   2.85   85.9   58.9   19.3    2.8   2.85   1.08    0.00    0.71
 1985 218    54    52   79.4    0.0   79.4   0.00   2.63   87.2   60.2   19.2    2.6   2.63   1.07    0.00    0.75
 1985 219    55    53   80.5    0.0   80.5   0.00   2.49   88.3   59.7   20.7    2.5   2.49   1.06    0.00    0.79
 1985 220    56    54   81.3    0.0   81.3   0.00   2.34   89.2   58.8   22.5    2.3   2.34   1.05    0.00    0.84
 1985 221    57    55   81.9    0.0   81.9   0.00   2.23   89.9   57.8   24.1    2.2   2.23   1.04    0.00    0.88
 1985 222    58    56   82.7    0.0   82.7   0.00   2.12   90.7   56.9   25.8    2.1   2.12   1.02    0.00    0.92
 1985 223    59    57   83.4    0.0   83.4   0.00   2.04   91.5   56.2   27.3    2.0   2.04   1.00    0.00    0.96
 1985 224    60    58   84.1    0.0   84.1   0.00   1.97   92.2   55.5   28.6    2.0   1.97   0.98    0.00    1.00
 1985 225    61    59   84.6    0.0   84.6   0.00   1.91   92.8   54.8   29.7    1.9   1.91   0.94    0.00    1.05
 1985 226    62    60   85.0    0.0   85.0   0.00   1.86   93.3   54.3   30.7    1.9   1.86   0.90    0.00    1.09
 1985 227    63    61   85.5    0.0   85.5   0.00   1.82   93.9   54.0   31.5    1.8   1.82   0.88    0.00    1.13
 1985 228    64    62   85.8    0.0   85.8   0.00   1.78   94.2   53.6   32.2    1.8   1.78   0.85    0.00    1.17
 1985 229    65    63   86.3    0.0   86.3   0.00   1.76   94.8   53.4   32.9    1.8   1.76   0.82    0.00    1.22
 1985 230    66    64   86.7    0.0   86.7   0.00   1.73   95.3   53.4   33.4    1.7   1.73   0.80    0.00    1.26
 1985 231    67    65   87.2    0.0   87.2   0.00   1.71   95.9   53.3   33.9    1.7   1.71   0.78    0.00    1.30
 1985 232    68    66   87.6    0.0   87.6   0.00   1.69   96.4   53.3   34.3    1.7   1.69   0.76    0.00    1.35
 1985 233    69    67   88.1    0.0   88.1   0.00   1.67   97.0   53.3   34.7    1.7   1.67   0.76    0.00    1.39
 1985 234    70    68   88.5    0.0   88.5   0.00   1.66   97.4   53.5   34.9    1.7   1.66   0.74    0.00    1.43
 1985 235    71    69   88.7    0.0   88.7   0.00   1.65   97.8   53.8   34.9    1.7   1.65   0.72    0.00    1.48
 1985 236    72    70   89.1    0.0   89.1   0.00   1.63   98.2   53.7   35.4    1.6   1.63   0.70    0.00    1.52
 1985 237    73    71   89.5    0.0   89.5   0.00   1.61   98.8   53.7   35.8    1.6   1.61   0.69    0.00    1.57
 1985 238    74    72   89.9    0.0   89.9   0.00   1.59   99.3   53.7   36.3    1.6   1.59   0.67    0.00    1.61
 1985 239    75    73   90.3    0.0   90.3   0.00   1.58   99.8   52.5   37.8    1.6   1.58   0.68    0.00    1.66
 1985 240    76    74   90.7    0.0   90.7   0.00   1.57  100.3   51.7   39.1    1.6   1.57   0.68    0.00    1.70
 1985 241    77    75   91.2    0.0   91.2   0.00   1.55  100.8   50.7   40.5    1.6   1.55   0.68    0.00    1.75
 1985 242    78    76   91.4    0.0   91.4   0.00   1.55  101.1   49.8   41.7    1.5   1.55   0.68    0.00    1.80
 1985 243    79    77   91.8    0.0   91.8   0.00   1.54  101.6   49.1   42.7    1.5   1.54   0.69    0.00    1.84
 1985 244    80    78   92.2    0.0   92.2   0.00   1.53  102.0   48.0   44.1    1.5   1.53   0.69    0.00    1.89
 1985 245    81    79   92.5    0.0   92.5   0.00   1.53  102.5   47.2   45.3    1.5   1.53   0.69    0.00    1.93
 1985 246    82    80   92.8    0.0   92.8   0.00   1.52  102.9   46.2   46.6    1.5   1.52   0.69    0.00    1.98
 1985 247    83    81   93.2    0.0   93.2   0.00   1.51  103.4   45.3   47.9    1.5   1.51   0.70    0.00    2.03
 1985 248    84    82   93.6    0.0   93.6   0.00   1.51  103.9   44.4   49.3    1.5   1.51   0.70    0.00    2.08
 1985 249    85    83   94.0    0.0   94.0   0.00   1.51  104.4   43.5   50.5    1.5   1.51   0.70    0.00    2.12
 1985 250    86    84   94.4    0.0   94.4   0.00   1.51  104.9   42.7   51.7    1.5   1.51   0.71    0.00    2.17
 1985 251    87    85   94.7    0.0   94.7   0.00   1.51  105.2   41.9   52.8    1.5   1.51   0.71    0.00    2.22
 1985 252    88    86   95.1    0.0   95.1   0.00   1.52  105.8   41.1   54.0    1.5   1.52   0.71    0.00    2.27
 1985 253    89    87   95.5    0.0   95.5   0.00   1.52  106.3   40.4   55.1    1.5   1.52   0.72    0.00    2.32
 1985 254    90    88   95.8    1.3   94.6   1.41   1.51  106.8   40.0   54.5    1.5   1.51   0.71    0.00    2.37
 1985 255    91    89   96.2    2.5   93.7   1.40   1.50  107.3   39.6   54.0    1.5   1.50   0.70    0.00    2.42
 1985 256    92    90   96.5    3.7   92.8   1.40   1.48  107.8   39.3   53.5    1.5   1.48   0.69    0.00    2.47
 1985 257    93    91   96.9    4.9   91.9   1.40   1.47  108.3   38.9   53.0    1.5   1.47   0.68    0.00    2.52
 1985 258    94    92   97.2    6.2   91.0   1.40   1.45  108.8   38.5   52.5    1.5   1.45   0.68    0.00    2.57
 1985 259    95    93   97.5    7.4   90.1   1.41   1.44  109.2   38.1   52.0    1.4   1.44   0.67    0.00    2.62
 1985 260    96    94   97.8    8.7   89.2   1.41   1.42  109.7   37.7   51.4    1.4   1.42   0.66    0.00    2.67
 1985 261    97    95   98.2    9.9   88.3   1.41   1.41  110.2   37.3   50.9    1.4   1.41   0.66    0.00    2.72
 1985 262    98    96   98.5   11.1   87.4   1.41   1.39  110.7   37.0   50.4    1.4   1.39   0.65    0.00    2.78
 1985 263    99    97   98.8   12.4   86.4   1.41   1.38  111.2   36.6   49.9    1.4   1.38   0.65    0.00    2.83
 1985 264   100    98   99.1   13.6   85.5   1.41   1.36  111.7   36.2   49.3    1.4   1.36   0.66    0.00    2.89
 1985 265   101    99   99.4   14.9   84.5   1.41   1.35  112.2   35.8   48.8    1.3   1.35   0.66    0.00    2.94
 1985 266   102   100   99.7   16.1   83.6   1.41   1.33  112.6   35.4   48.2    1.3   1.33   0.66    0.00    3.00
 1985 267   103   101  100.0   17.4   82.6   1.41   1.32  113.1   35.0   47.7    1.3   1.32   0.65    0.00    3.05
 1985 268   104   102  100.3   18.6   81.6   1.41   1.30  113.6   34.5   47.1    1.3   1.30   0.65    0.00    3.11
 1985 269   105   103  100.5   19.9   80.7   1.42   1.29  114.0   34.1   46.5    1.3   1.29   0.65    0.00    3.17
 1985 270   106   104  100.8   21.1   79.7   1.42   1.27  114.5   33.7   46.0    1.3   1.27   0.65    0.00    3.23
 1985 271   107   105  101.1   22.3   78.7   1.42   1.26  114.9   33.3   45.4    1.3   1.26   0.64    0.00    3.28
 1985 272   108   106  101.3   23.6   77.7   1.42   1.24  115.3   32.9   44.8    1.2   1.24   0.64    0.00    3.34
 1985 273   109   107  101.4   24.8   76.6   1.41   1.22  115.7   32.4   44.2    1.2   1.22   0.63    0.00    3.40
 1985 274   110   108  101.6   26.0   75.6   1.41   1.21  116.0   32.0   43.6    1.2   1.21   0.63    0.00    3.46
 1985 275   111   109  101.7   27.3   74.5   1.41   1.19  116.3   31.5   43.0    1.2   1.19   0.63    0.00    3.53
 1985 276   112   110  101.9   28.5   73.4   1.41   1.17  116.5   31.0   42.3    1.2   1.17   0.63    0.00    3.59
 1985 277   113   111  102.0   29.7   72.3   1.41   1.15  116.8   30.6   41.7    1.2   1.15   0.62    0.00    3.65
 1985 278   114   112  102.1   30.9   71.2   1.41   1.14  117.0   30.1   41.0    1.1   1.14   0.62    0.00    3.71
 1985 279   115   113  102.2   32.2   70.0   1.41   1.12  117.3   29.6   40.4    1.1   1.12   0.62    0.00    3.77
 1985 280   116   114  102.3   33.4   68.9   1.41   1.10  117.5   29.1   39.7    1.1   1.10   0.62    0.00    3.84
 1985 281   117   115  102.5   34.5   68.0   1.41   1.09  117.9   28.8   39.2    1.1   1.09   0.62    0.00    3.90
 1985 282   118   116  102.5   35.7   66.9   1.41   1.07  118.1   28.3   38.6    1.1   1.07   0.62    0.00    3.97
 1985 283   119   117  102.6   36.6   65.9   1.41   1.05  118.2   27.9   38.0    1.1   1.05   0.62    0.00    4.03
 1985 284   120   118  102.6   37.4   65.1   1.41   1.04  118.3   27.6   37.6    1.0   1.04   0.63    0.00    4.09
 1985 285   121   119  102.6   38.2   64.4   1.41   1.03  118.4   27.2   37.1    1.0   1.03   0.63    0.00    4.16
 1985 286   122   120  102.6   39.0   63.6   1.42   1.02  118.5   26.9   36.7    1.0   1.02   0.63    0.00    4.22
 1985 287   123   121  102.5   39.7   62.8   1.42   1.00  118.5   26.6   36.2    1.0   1.00   0.64    0.00    4.29
 1985 288   124   122  102.5   40.4   62.1   1.42   0.99  118.5   26.3   35.8    1.0   0.99   0.64    0.00    4.35
 1985 289   125   123  102.5   41.1   61.3   1.42   0.98  118.6   26.0   35.3    1.0   0.98   0.64    0.00    4.42
 1985 290   126   124  102.4   41.8   60.6   1.42   0.98  118.6   25.8   34.8    1.0   0.98   0.65    0.00    4.48
 1985 291   127   125  102.4   42.4   60.0   1.42   0.97  118.6   25.7   34.3    1.0   0.97   0.65    0.00    4.55
 1985 292   128   126  102.3   43.1   59.2   1.42   0.96  118.6   25.5   33.8    1.0   0.96   0.65    0.00    4.61
 1985 293   129   127  102.3   43.7   58.5   1.43   0.95  118.6   25.3   33.2    1.0   0.95   0.65    0.00    4.68
[...]
 2013 267   103   101  118.3   28.4   89.9   1.70   1.48  130.9   39.9   50.0    1.5   1.48   0.79    0.00    2.39
 2013 268   104   102  118.5   30.0   88.4   1.70   1.46  131.4   39.3   49.1    1.5   1.46   0.79    0.00    2.45
 2013 269   105   103  118.6   31.7   86.9   1.70   1.44  131.8   38.6   48.3    1.4   1.44   0.78    0.00    2.50
 2013 270   106   104  118.8   33.4   85.4   1.70   1.41  132.2   38.0   47.5    1.4   1.41   0.78    0.00    2.56
 2013 271   107   105  118.9   35.0   83.9   1.70   1.39  132.6   37.3   46.6    1.4   1.39   0.77    0.00    2.63
 2013 272   108   106  119.1   36.6   82.4   1.70   1.36  132.9   36.6   45.8    1.4   1.36   0.76    0.00    2.69
 2013 273   109   107  119.3   38.3   81.0   1.70   1.34  133.5   36.0   45.0    1.3   1.34   0.76    0.00    2.75
 2013 274   110   108  119.4   39.9   79.5   1.69   1.31  133.8   35.3   44.2    1.3   1.31   0.76    0.00    2.81
 2013 275   111   109  119.6   41.5   78.0   1.69   1.29  134.2   34.7   43.4    1.3   1.29   0.75    0.00    2.88
 2013 276   112   110  119.7   43.1   76.6   1.69   1.26  134.6   34.0   42.6    1.3   1.26   0.74    0.00    2.94
 2013 277   113   111  119.9   44.7   75.1   1.69   1.24  135.0   33.4   41.7    1.2   1.24   0.74    0.00    3.01
 2013 278   114   112  120.0   46.3   73.7   1.69   1.22  135.3   32.7   40.9    1.2   1.22   0.73    0.00    3.08
 2013 279   115   113  120.1   47.9   72.2   1.68   1.19  135.7   32.1   40.1    1.2   1.19   0.73    0.00    3.14
 2013 280   116   114  120.3   49.5   70.8   1.68   1.17  136.1   31.5   39.4    1.2   1.17   0.72    0.00    3.21
 2013 281   117   115  120.5   51.0   69.5   1.68   1.15  136.6   30.9   38.6    1.1   1.15   0.73    0.00    3.28
 2013 282   118   116  120.6   52.5   68.1   1.67   1.12  136.9   30.3   37.8    1.1   1.12   0.72    0.00    3.35
 2013 283   119   117  120.8   54.1   66.7   1.67   1.10  137.3   29.6   37.1    1.1   1.10   0.72    0.00    3.42
 2013 284   120   118  120.9   55.6   65.3   1.67   1.08  137.6   29.0   36.3    1.1   1.08   0.72    0.00    3.50
 2013 285   121   119  121.1   57.1   64.1   1.66   1.06  138.1   28.5   35.6    1.1   1.06   0.71    0.00    3.57
 2013 286   122   120  121.3   58.5   62.8   1.66   1.04  138.6   27.9   34.9    1.0   1.04   0.71    0.00    3.64
 2013 287   123   121  121.5   60.0   61.5   1.65   1.02  139.0   27.3   34.2    1.0   1.02   0.71    0.00    3.72
 2013 288   124   122  121.7   61.4   60.3   1.65   1.00  139.5   26.8   33.5    1.0   1.00   0.71    0.00    3.79
 2013 289   125   123  121.9   62.9   59.0   1.64   0.97  139.9   26.2   32.8    1.0   0.97   0.71    0.00    3.87
 2013 290   126   124  122.1   64.3   57.8   1.64   0.95  140.3   25.7   32.1    1.0   0.95   0.71    0.00    3.95
 2013 291   127   125  122.3   65.7   56.6   1.63   0.93  140.8   25.1   31.4    0.9   0.93   0.71    0.00    4.03
 2013 292   128   126  122.5   67.1   55.4   1.63   0.91  141.3   24.6   30.8    0.9   0.91   0.71    0.00    4.10
 2013 293   129   127  122.7   68.4   54.2   1.62   0.90  141.7   24.1   30.1    0.9   0.90   0.71    0.00    4.18
 2013 294   130   128  122.8   69.8   53.1   1.62   0.88  142.1   23.6   29.5    0.9   0.88   0.71    0.00    4.27
 2013 295   131   129  123.0   71.1   51.9   1.61   0.86  142.5   23.1   28.8    0.9   0.86   0.71    0.00    4.35
 2013 296   132   130  123.1   72.4   50.7   1.60   0.84  142.8   22.5   28.2    0.8   0.84   0.71    0.00    4.43
 2013 297   133   131  123.2   73.7   49.6   1.60   0.82  143.1   22.0   27.5    0.8   0.82   0.71    0.00    4.51
 2013 298   134   132  123.3   74.9   48.4   1.59   0.80  143.4   21.5   26.9    0.8   0.80   0.71    0.00    4.60
 2013 299   135   133  123.4   76.1   47.3   1.58   0.78  143.7   21.0   26.3    0.8   0.78   0.71    0.00    4.68
 2013 300   136   134  123.5   77.3   46.1   1.58   0.76  143.9   20.5   25.6    0.8   0.76   0.71    0.00    4.76
 2013 301   137   135  123.5   77.3   46.1   1.58   0.76  143.9   20.5   25.6    0.8   0.76   0.71    0.00    4.76
 2013 302   138   136  123.5   77.3   46.1   1.58   0.76  143.9   20.5   25.6    0.8   0.76   0.71    0.00    4.76
 2013 303   139   137  123.5   77.3   46.1   1.58   0.76  143.9   20.5   25.6    0.8   0.76   0.71    0.00    4.76
 2013 304   140   138  123.5   77.3   46.1   1.58   0.76  143.9   20.5   25.6    0.8   0.76   0.71    0.00    4.76

*DSSAT Cropping System Model Ver. 4.7.5.008 -release  JAN 07, 2021 20:14:52

*RUN  68        : ERiMA DCC1                MZCER047 ETMZawas    1
 MODEL          : MZCER047 - Maize
 EXPERIMENT     : ETMZawas SN MELKSSAL
 DATA PATH      : C:\IRI\Python_Dash\ET_DSS_hist\TEST\
 TREATMENT  1   : ERiMA DCC1                MZCER047
  
@YEAR DOY   DAS   DAP   CNAD   GNAD   VNAD   GN%D   VN%D   NUPC   LNAD   SNAD   LN%D   SN%D   RN%D   SNN0C   SNN1C
 2014 166     2     0    0.0    0.0    0.0   0.00   0.00    0.0    0.0    0.0    0.0   0.00   0.00    0.00    0.00
 2014 167     3     1    0.0    0.0    0.0   0.00   0.00    0.0    0.0    0.0    0.0   0.00   0.00    0.00    0.00
 2014 168     4     2    0.0    0.0    0.0   0.00   0.00    0.0    0.0    0.0    0.0   0.00   0.00    0.00    0.00
 2014 169     5     3    0.0    0.0    0.0   0.00   0.00    0.0    0.0    0.0    0.0   0.00   0.00    0.00    0.00
 2014 170     6     4    0.0    0.0    0.0   0.00   0.00    0.0    0.0    0.0    0.0   0.00   0.00    0.00    0.00
 2014 171     7     5    0.0    0.0    0.0   0.00   0.00    0.0    0.0    0.0    0.0   0.00   0.00    0.00    0.00
 2014 172     8     6    1.1    0.0    1.1   0.00   4.40    0.0    0.5    0.5    4.4   4.40   2.20    0.00    0.00
 2014 173     9     7    1.1    0.0    1.1   0.00   4.40    0.0    0.5    0.5    4.4   4.40   2.17    0.00    0.00
 2014 174    10     8    1.1    0.0    1.1   0.00   4.40    0.0    0.5    0.5    4.4   4.40   2.08    0.00    0.00
 2014 175    11     9    1.1    0.0    1.1   0.00   4.40    0.0    0.5    0.5    4.4   4.40   1.96    0.00    0.00
 2014 176    12    10    1.1    0.0    1.1   0.00   4.40    0.0    0.5    0.5    4.4   4.40   1.81    0.00    0.00
 2014 177    13    11    1.1    0.0    1.1   0.00   4.40    0.0    0.5    0.5    4.4   4.40   1.64    0.00    0.00
 2014 178    14    12    1.1    0.0    1.1   0.00   4.40    0.0    0.5    0.5    4.4   4.40   1.44    0.00    0.00
 2014 179    15    13    1.1    0.0    1.1   0.00   3.55    0.0    0.6    0.4    3.6   3.55   1.38    0.00    0.00
 2014 180    16    14    1.3    0.0    1.3   0.00   3.38    0.2    0.8    0.4    3.4   3.38   1.23    0.00    0.00
 2014 181    17    15    1.5    0.0    1.5   0.00   3.32    0.5    1.1    0.4    3.3   3.32   1.28    0.00    0.00
 2014 182    18    16    1.9    0.0    1.9   0.00   3.32    0.9    1.5    0.4    3.3   3.32   1.19    0.00    0.00
 2014 183    19    17    2.4    0.0    2.4   0.00   3.37    1.4    2.0    0.4    3.4   3.37   1.23    0.00    0.01
 2014 184    20    18    2.8    0.0    2.8   0.00   3.36    2.0    2.4    0.4    3.4   3.36   1.38    0.00    0.01
 2014 185    21    19    3.4    0.0    3.4   0.00   3.32    2.6    3.0    0.4    3.3   3.32   1.43    0.00    0.01
 2014 186    22    20    4.0    0.0    4.0   0.00   3.33    3.2    3.6    0.4    3.3   3.33   1.25    0.00    0.01
 2014 187    23    21    4.7    0.0    4.7   0.00   3.32    4.0    4.3    0.4    3.3   3.32   1.24    0.00    0.01
 2014 188    24    22    5.5    0.0    5.5   0.00   3.48    5.1    5.1    0.4    3.5   3.48   1.44    0.00    0.02
 2014 189    25    23    6.2    0.0    6.2   0.00   3.29    5.8    5.8    0.4    3.3   3.29   1.40    0.00    0.02
 2014 190    26    24    7.2    0.0    7.2   0.00   3.26    6.8    6.8    0.4    3.3   3.26   1.21    0.00    0.03
 2014 191    27    25   10.2    0.0   10.2   0.00   4.02   10.1    9.8    0.5    4.0   4.02   1.35    0.00    0.03
 2014 192    28    26   11.5    0.0   11.5   0.00   3.95   11.7   11.1    0.5    4.0   3.95   1.36    0.00    0.04
 2014 193    29    27   13.0    0.0   13.0   0.00   3.85   13.4   12.5    0.5    3.8   3.85   1.40    0.00    0.04
 2014 194    30    28   14.7    0.0   14.7   0.00   3.76   15.1   14.2    0.5    3.8   3.76   1.27    0.00    0.05
 2014 195    31    29   16.6    0.0   16.6   0.00   3.70   17.1   16.1    0.5    3.7   3.70   1.17    0.00    0.06
 2014 196    32    30   18.7    0.0   18.7   0.00   3.64   19.3   18.1    0.6    3.6   3.64   1.17    0.00    0.07
 2014 197    33    31   21.3    0.0   21.3   0.00   3.60   22.1   20.5    0.7    3.6   3.60   1.22    0.00    0.08
 2014 198    34    32   23.4    0.0   23.4   0.00   3.52   24.6   22.4    0.9    3.5   3.52   1.30    0.00    0.09
 2014 199    35    33   26.1    0.0   26.1   0.00   3.48   27.4   24.9    1.2    3.5   3.48   1.24    0.00    0.10
 2014 200    36    34   29.9    0.0   29.9   0.00   3.46   31.0   28.1    1.7    3.5   3.46   1.12    0.00    0.11
 2014 201    37    35   33.2    0.0   33.2   0.00   3.40   34.8   30.9    2.3    3.4   3.40   1.22    0.00    0.13
 2014 202    38    36   36.4    0.0   36.4   0.00   3.34   38.4   33.5    3.0    3.3   3.34   1.26    0.00    0.14
 2014 203    39    37   39.6    0.0   39.6   0.00   3.29   42.1   35.9    3.7    3.3   3.29   1.28    0.00    0.16
 2014 204    40    38   43.0    0.0   43.0   0.00   3.24   45.1   38.4    4.6    3.2   3.24   1.11    0.00    0.17
 2014 205    41    39   46.9    0.0   46.9   0.00   3.21   49.0   41.1    5.7    3.2   3.21   1.13    0.00    0.19
 2014 206    42    40   50.2    0.0   50.2   0.00   3.15   52.4   43.4    6.9    3.2   3.15   1.11    0.00    0.21
 2014 207    43    41   53.7    0.0   53.7   0.00   3.11   56.0   45.5    8.1    3.1   3.11   1.11    0.00    0.22
 2014 208    44    42   58.6    0.0   58.6   0.00   3.08   61.0   48.6   10.0    3.1   3.08   1.12    0.00    0.24
 2014 209    45    43   63.3    0.0   63.3   0.00   3.03   65.9   51.3   12.1    3.0   3.03   1.13    0.00    0.26
 2014 210    46    44   66.0    0.0   66.0   0.00   2.91   68.8   52.3   13.7    2.9   2.91   1.13    0.00    0.28
 2014 211    47    45   68.0    0.0   68.0   0.00   2.80   70.8   52.8   15.2    2.8   2.80   1.11    0.00    0.29
 2014 212    48    46   69.4    0.0   69.4   0.00   2.65   72.3   52.8   16.7    2.7   2.65   1.09    0.00    0.31
 2014 213    49    47   70.6    0.0   70.6   0.00   2.55   73.5   52.7   17.9    2.5   2.55   1.07    0.00    0.33
 2014 214    50    48   71.6    0.0   71.6   0.00   2.39   74.6   53.3   18.3    2.4   2.39   1.05    0.00    0.35
 2014 215    51    49   72.5    0.0   72.5   0.00   2.28   75.5   52.9   19.6    2.3   2.28   1.03    0.00    0.37
 2014 216    52    50   73.4    0.0   73.4   0.00   2.20   76.4   52.5   20.9    2.2   2.20   1.01    0.00    0.39
 2014 217    53    51   74.2    0.0   74.2   0.00   2.11   77.3   51.9   22.3    2.1   2.11   1.00    0.00    0.41
 2014 218    54    52   90.8    0.0   90.8   0.00   2.46   94.2   62.1   28.7    2.5   2.46   1.07    0.00    0.43
 2014 219    55    53   99.7    0.0   99.7   0.00   2.59  103.4   66.8   32.9    2.6   2.59   1.10    0.00    0.45
 2014 220    56    54  103.8    0.0  103.8   0.00   2.56  107.6   67.8   36.0    2.6   2.56   1.10    0.00    0.48
 2014 221    57    55  106.0    0.0  106.0   0.00   2.49  109.9   67.5   38.5    2.5   2.49   1.09    0.00    0.50
 2014 222    58    56  107.5    0.0  107.5   0.00   2.43  111.5   67.2   40.3    2.4   2.43   1.08    0.00    0.52
 2014 223    59    57  108.5    0.0  108.5   0.00   2.36  112.5   66.6   41.9    2.4   2.36   1.06    0.00    0.55
 2014 224    60    58  109.5    0.0  109.5   0.00   2.31  113.5   66.1   43.4    2.3   2.31   1.05    0.00    0.57
 2014 225    61    59  110.3    0.0  110.3   0.00   2.25  114.4   65.6   44.7    2.2   2.25   1.03    0.00    0.60
 2014 226    62    60  111.1    0.0  111.1   0.00   2.19  115.3   65.3   45.8    2.2   2.19   1.01    0.00    0.62
 2014 227    63    61  111.9    0.0  111.9   0.00   2.16  116.2   65.1   46.8    2.2   2.16   1.00    0.00    0.64
 2014 228    64    62  112.7    0.0  112.7   0.00   2.12  117.0   65.0   47.7    2.1   2.12   1.00    0.00    0.67
 2014 229    65    63  113.3    0.0  113.3   0.00   2.09  117.7   65.0   48.3    2.1   2.09   0.98    0.00    0.69
 2014 230    66    64  114.0    0.0  114.0   0.00   2.06  118.4   65.4   48.7    2.1   2.06   0.97    0.00    0.72
 2014 231    67    65  114.7    0.0  114.7   0.00   2.04  119.2   65.7   49.0    2.0   2.04   0.96    0.00    0.74
 2014 232    68    66  115.3    0.0  115.3   0.00   2.03  119.8   64.8   50.6    2.0   2.03   0.95    0.00    0.77
 2014 233    69    67  116.0    0.0  116.0   0.00   2.02  120.5   63.8   52.2    2.0   2.02   0.95    0.00    0.79
 2014 234    70    68  116.6    0.0  116.6   0.00   2.02  121.2   63.1   53.5    2.0   2.02   0.94    0.00    0.82
 2014 235    71    69  117.1    0.0  117.1   0.00   2.03  121.8   62.4   54.7    2.0   2.03   0.94    0.00    0.85
 2014 236    72    70  117.6    0.0  117.6   0.00   2.03  122.4   61.6   56.0    2.0   2.03   0.94    0.00    0.87
 2014 237    73    71  118.0    0.0  118.0   0.00   2.04  122.9   60.9   57.2    2.0   2.04   0.93    0.00    0.90
 2014 238    74    72  118.6    0.0  118.6   0.00   2.05  123.6   60.3   58.3    2.0   2.05   0.94    0.00    0.92
 2014 239    75    73  119.1    0.0  119.1   0.00   2.06  124.2   59.6   59.5    2.1   2.06   0.95    0.00    0.95
 2014 240    76    74  119.3    0.0  119.3   0.00   2.07  124.8   58.8   60.5    2.1   2.07   1.00    0.00    0.98
 2014 241    77    75  119.3    0.0  119.3   0.00   2.07  124.8   57.9   61.4    2.1   2.07   0.99    0.00    0.98
 2014 242    78    76  119.3    0.0  119.3   0.00   2.08  124.8   57.0   62.3    2.1   2.08   0.97    0.00    0.98
 2014 243    79    77  119.3    0.0  119.3   0.00   2.09  124.8   56.1   63.3    2.1   2.09   0.96    0.00    0.98
 2014 244    80    78  119.3    0.0  119.3   0.00   2.10  124.8   55.1   64.2    2.1   2.10   0.95    0.00    0.98
 2014 245    81    79  119.3    1.6  117.7   1.70   2.07  124.8   54.4   63.3    2.1   2.07   0.91    0.00    0.98
 2014 246    82    80  119.3    3.3  116.1   1.70   2.05  124.8   53.6   62.4    2.0   2.05   0.86    0.00    0.98
 2014 247    83    81  119.3    4.9  114.4   1.70   2.02  124.8   52.9   61.6    2.0   2.02   0.81    0.00    0.98
 2014 248    84    82  119.3    6.6  112.8   1.70   1.99  124.8   52.1   60.7    2.0   1.99   0.77    0.00    0.98
 2014 249    85    83  119.3    8.2  111.1   1.70   1.96  124.8   51.3   59.8    2.0   1.96   0.73    0.00    0.98
 2014 250    86    84  119.3    9.9  109.5   1.70   1.93  124.8   50.6   58.9    1.9   1.93   0.70    0.00    0.98
 2014 251    87    85  119.3   11.5  107.8   1.70   1.90  124.8   49.8   58.0    1.9   1.90   0.66    0.00    0.98
 2014 252    88    86  119.3   13.2  106.2   1.70   1.87  124.8   49.1   57.1    1.9   1.87   0.63    0.00    0.98
 2014 253    89    87  119.3   14.8  104.5   1.70   1.84  124.8   48.3   56.2    1.8   1.84   0.60    0.00    0.98
 2014 254    90    88  113.8   16.4   97.4   1.70   1.72  125.0   45.0   52.4    1.7   1.72   1.15    0.00    1.01
 2014 255    91    89  113.8   18.1   95.7   1.70   1.69  125.2   44.2   51.5    1.7   1.69   1.13    0.00    1.06
 2014 256    92    90  114.7   19.7   94.9   1.70   1.67  126.9   43.9   51.1    1.7   1.67   1.15    0.00    1.12
 2014 257    93    91  114.8   21.4   93.4   1.70   1.65  127.2   43.1   50.2    1.6   1.65   1.13    0.00    1.19
 2014 258    94    92  115.2   23.0   92.2   1.70   1.62  128.1   42.6   49.6    1.6   1.62   1.13    0.00    1.25
 2014 259    95    93  115.4   24.7   90.7   1.70   1.60  128.5   41.9   48.8    1.6   1.60   1.12    0.00    1.31
 2014 260    96    94  116.2   26.3   89.9   1.70   1.58  130.0   41.5   48.4    1.6   1.58   1.13    0.00    1.38
 2014 261    97    95  116.7   28.0   88.8   1.70   1.56  131.1   41.0   47.7    1.6   1.56   1.13    0.00    1.45
 2014 262    98    96  116.7   29.6   87.1   1.70   1.54  131.3   40.2   46.9    1.5   1.54   1.12    0.00    1.52
 2014 263    99    97  117.1   31.2   85.8   1.70   1.51  132.0   39.6   46.2    1.5   1.51   1.11    0.00    1.59
 2014 264   100    98  117.5   32.9   84.6   1.70   1.49  132.8   39.1   45.5    1.5   1.49   1.10    0.00    1.66
 2014 265   101    99  117.8   34.5   83.3   1.70   1.47  133.5   38.5   44.8    1.5   1.47   1.09    0.00    1.74
 2014 266   102   100  118.2   36.2   82.0   1.70   1.45  134.2   37.9   44.1    1.4   1.45   1.08    0.00    1.81
 2014 267   103   101  118.5   37.8   80.7   1.70   1.42  134.9   37.3   43.4    1.4   1.42   1.07    0.00    1.89
 2014 268   104   102  118.8   39.5   79.4   1.70   1.40  135.6   36.7   42.7    1.4   1.40   1.07    0.00    1.97
 2014 269   105   103  119.2   41.1   78.0   1.70   1.38  136.2   36.1   42.0    1.4   1.38   1.07    0.00    2.05
 2014 270   106   104  119.5   42.8   76.8   1.70   1.35  136.9   35.5   41.3    1.4   1.35   1.06    0.00    2.13
 2014 271   107   105  119.8   44.4   75.4   1.70   1.33  137.5   34.9   40.6    1.3   1.33   1.05    0.00    2.22
 2014 272   108   106  120.2   46.1   74.2   1.70   1.31  138.2   34.3   39.9    1.3   1.31   1.05    0.00    2.30
 2014 273   109   107  120.5   47.7   72.8   1.70   1.28  138.8   33.6   39.2    1.3   1.28   1.04    0.00    2.39
 2014 274   110   108  120.9   49.3   71.5   1.70   1.26  139.4   33.1   38.5    1.3   1.26   1.04    0.00    2.47
 2014 275   111   109  121.2   51.0   70.3   1.70   1.24  140.1   32.5   37.8    1.2   1.24   1.02    0.00    2.56
 2014 276   112   110  121.6   52.6   69.0   1.70   1.22  140.7   31.9   37.1    1.2   1.22   1.02    0.00    2.65
 2014 277   113   111  121.9   54.3   67.6   1.70   1.19  141.2   31.2   36.4    1.2   1.19   1.01    0.00    2.73
 2014 278   114   112  122.1   55.9   66.2   1.70   1.17  141.7   30.6   35.6    1.2   1.17   0.99    0.00    2.82
 2014 279   115   113  122.4   57.6   64.8   1.70   1.14  142.2   29.9   34.9    1.1   1.14   0.98    0.00    2.92
 2014 280   116   114  122.7   59.2   63.5   1.70   1.12  142.9   29.4   34.2    1.1   1.12   0.98    0.00    3.01
 2014 281   117   115  123.0   60.8   62.2   1.70   1.10  143.4   28.7   33.5    1.1   1.10   0.97    0.00    3.10
 2014 282   118   116  123.2   62.4   60.9   1.70   1.07  143.9   28.1   32.7    1.1   1.07   0.97    0.00    3.19
 2014 283   119   117  123.5   63.9   59.5   1.69   1.05  144.3   27.5   32.0    1.0   1.05   0.96    0.00    3.29
 2014 284   120   118  123.7   65.5   58.2   1.69   1.03  144.8   26.9   31.3    1.0   1.03   0.96    0.00    3.38
 2014 285   121   119  124.1   67.0   57.0   1.69   1.00  145.4   26.3   30.7    1.0   1.00   0.95    0.00    3.48
 2014 286   122   120  124.4   68.6   55.8   1.69   0.98  146.0   25.8   30.0    1.0   0.98   0.95    0.00    3.57
 2014 287   123   121  124.7   70.1   54.6   1.68   0.96  146.6   25.2   29.4    1.0   0.96   0.95    0.00    3.67
 2014 288   124   122  125.0   71.6   53.5   1.68   0.94  147.2   24.7   28.8    0.9   0.94   0.94    0.00    3.77
 2014 289   125   123  125.4   73.1   52.3   1.68   0.92  147.7   24.2   28.1    0.9   0.92   0.94    0.00    3.86
 2014 290   126   124  125.7   74.5   51.2   1.67   0.90  148.3   23.6   27.5    0.9   0.90   0.94    0.00    3.96
 2014 291   127   125  126.0   75.9   50.0   1.67   0.88  148.9   23.1   26.9    0.9   0.88   0.94    0.00    4.06
 2014 292   128   126  126.3   77.4   48.9   1.67   0.86  149.4   22.6   26.3    0.9   0.86   0.93    0.00    4.16
 2014 293   129   127  126.3   77.4   48.9   1.67   0.86  149.4   22.6   26.3    0.9   0.86   0.93    0.00    4.16
 2014 294   130   128  126.3   77.4   48.9   1.67   0.86  149.4   22.6   26.3    0.9   0.86   0.93    0.00    4.16
 2014 295   131   129  126.3   77.4   48.9   1.67   0.86  149.4   22.6   26.3    0.9   0.86   0.93    0.00    4.16
 2014 296   132   130  126.3   77.4   48.9   1.67   0.86  149.4   22.6   26.3    0.9   0.86   0.93    0.00    4.16
 2014 297   133   131  126.3   77.4   48.9   1.67   0.86  149.4   22.6   26.3    0.9   0.86   0.93    0.00    4.16
