*SOIL ORGANIC N BALANCE

*DSSAT Cropping System Model Ver. 4.7.5.008 -release  JAN 07, 2021 20:33:24

*RUN   1        : ERiMA DCC1                MZCER047 ETMZmelk    1
 MODEL          : MZCER047 - Maize
 EXPERIMENT     : ETMZmelk SN MELKSSAL
 DATA PATH      : C:\IRI\Python_Dash\ET_DSS_hist\TEST\
 TREATMENT  1   : ERiMA DCC1                MZCER047
  


!                                        INITIAL Year/Doy      FINAL Year/Doy
!                                                1981/165            1981/272
!SOIL N BALANCE                                 -----------kg N/ha-----------

!   Soil Humus N                                 18903.17            18799.19
!   Soil Litter N                                    0.00                1.15
!   N in Surface Residue                             0.00                0.00

!   Added to / Removed from Soil:
!   N in Harvest Residues from Previous Crop         0.00
!   N from Organic Applications                      0.00
!   N from senesced plant matter                     1.69
!   N immobilized                                    0.00
!   N mineralized                                                      104.51

!   Total N balance                              18904.86            18904.86
!   Balance                                                             0.000

!===============================================================================

*DSSAT Cropping System Model Ver. 4.7.5.008 -release  JAN 07, 2021 20:33:24

*RUN   2        : ERiMA DCC1                MZCER047 ETMZmelk    1
 MODEL          : MZCER047 - Maize
 EXPERIMENT     : ETMZmelk SN MELKSSAL
 DATA PATH      : C:\IRI\Python_Dash\ET_DSS_hist\TEST\
 TREATMENT  1   : ERiMA DCC1                MZCER047
  


!                                        INITIAL Year/Doy      FINAL Year/Doy
!                                                1982/165            1982/272
!SOIL N BALANCE                                 -----------kg N/ha-----------

!   Soil Humus N                                 18903.17            18802.15
!   Soil Litter N                                    0.00                1.38
!   N in Surface Residue                             0.00                0.00

!   Added to / Removed from Soil:
!   N in Harvest Residues from Previous Crop         0.00
!   N from Organic Applications                      0.00
!   N from senesced plant matter                     1.86
!   N immobilized                                    0.00
!   N mineralized                                                      101.51

!   Total N balance                              18905.04            18905.04
!   Balance                                                             0.002

!===============================================================================

*DSSAT Cropping System Model Ver. 4.7.5.008 -release  JAN 07, 2021 20:33:24

*RUN   3        : ERiMA DCC1                MZCER047 ETMZmelk    1
 MODEL          : MZCER047 - Maize
 EXPERIMENT     : ETMZmelk SN MELKSSAL
 DATA PATH      : C:\IRI\Python_Dash\ET_DSS_hist\TEST\
 TREATMENT  1   : ERiMA DCC1                MZCER047
  


!                                        INITIAL Year/Doy      FINAL Year/Doy
!                                                1983/165            1983/267
!SOIL N BALANCE                                 -----------kg N/ha-----------

!   Soil Humus N                                 18903.17            18803.61
!   Soil Litter N                                    0.00                1.03
!   N in Surface Residue                             0.00                0.00

!   Added to / Removed from Soil:
!   N in Harvest Residues from Previous Crop         0.00
!   N from Organic Applications                      0.00
!   N from senesced plant matter                     1.52
!   N immobilized                                    0.00
!   N mineralized                                                      100.06

!   Total N balance                              18904.69            18904.69
!   Balance                                                             0.002

!===============================================================================

*DSSAT Cropping System Model Ver. 4.7.5.008 -release  JAN 07, 2021 20:33:24

*RUN   4        : ERiMA DCC1                MZCER047 ETMZmelk    1
 MODEL          : MZCER047 - Maize
 EXPERIMENT     : ETMZmelk SN MELKSSAL
 DATA PATH      : C:\IRI\Python_Dash\ET_DSS_hist\TEST\
 TREATMENT  1   : ERiMA DCC1                MZCER047
  


!                                        INITIAL Year/Doy      FINAL Year/Doy
!                                                1984/165            1984/272
!SOIL N BALANCE                                 -----------kg N/ha-----------

!   Soil Humus N                                 18903.17            18806.71
!   Soil Litter N                                    0.00                1.69
!   N in Surface Residue                             0.00                0.00

!   Added to / Removed from Soil:
!   N in Harvest Residues from Previous Crop         0.00
!   N from Organic Applications                      0.00
!   N from senesced plant matter                     2.13
!   N immobilized                                    0.00
!   N mineralized                                                       96.90

!   Total N balance                              18905.30            18905.30
!   Balance                                                             0.000

!===============================================================================

*DSSAT Cropping System Model Ver. 4.7.5.008 -release  JAN 07, 2021 20:33:24

*RUN   5        : ERiMA DCC1                MZCER047 ETMZmelk    1
 MODEL          : MZCER047 - Maize
 EXPERIMENT     : ETMZmelk SN MELKSSAL
 DATA PATH      : C:\IRI\Python_Dash\ET_DSS_hist\TEST\
 TREATMENT  1   : ERiMA DCC1                MZCER047
  


!                                        INITIAL Year/Doy      FINAL Year/Doy
!                                                1985/165            1985/277
!SOIL N BALANCE                                 -----------kg N/ha-----------

!   Soil Humus N                                 18903.17            18798.99
!   Soil Litter N                                    0.00                1.46
!   N in Surface Residue                             0.00                0.00

!   Added to / Removed from Soil:
!   N in Harvest Residues from Previous Crop         0.00
!   N from Organic Applications                      0.00
!   N from senesced plant matter                     2.12
!   N immobilized                                    0.00
!   N mineralized                                                      104.85

!   Total N balance                              18905.30            18905.29
!   Balance                                                            -0.002

!===============================================================================

*DSSAT Cropping System Model Ver. 4.7.5.008 -release  JAN 07, 2021 20:33:24

*RUN   6        : ERiMA DCC1                MZCER047 ETMZmelk    1
 MODEL          : MZCER047 - Maize
 EXPERIMENT     : ETMZmelk SN MELKSSAL
 DATA PATH      : C:\IRI\Python_Dash\ET_DSS_hist\TEST\
 TREATMENT  1   : ERiMA DCC1                MZCER047
  


!                                        INITIAL Year/Doy      FINAL Year/Doy
!                                                1986/165            1986/276
!SOIL N BALANCE                                 -----------kg N/ha-----------

!   Soil Humus N                                 18903.17            18803.48
!   Soil Litter N                                    0.00                1.72
!   N in Surface Residue                             0.00                0.00

!   Added to / Removed from Soil:
!   N in Harvest Residues from Previous Crop         0.00
!   N from Organic Applications                      0.00
!   N from senesced plant matter                     2.16
!   N immobilized                                    0.00
!   N mineralized                                                      100.13

!   Total N balance                              18905.33            18905.33
!   Balance                                                            -0.002

!===============================================================================

*DSSAT Cropping System Model Ver. 4.7.5.008 -release  JAN 07, 2021 20:33:24

*RUN   7        : ERiMA DCC1                MZCER047 ETMZmelk    1
 MODEL          : MZCER047 - Maize
 EXPERIMENT     : ETMZmelk SN MELKSSAL
 DATA PATH      : C:\IRI\Python_Dash\ET_DSS_hist\TEST\
 TREATMENT  1   : ERiMA DCC1                MZCER047
  


!                                        INITIAL Year/Doy      FINAL Year/Doy
!                                                1987/165            1987/264
!SOIL N BALANCE                                 -----------kg N/ha-----------

!   Soil Humus N                                 18903.17            18808.00
!   Soil Litter N                                    0.00                0.70
!   N in Surface Residue                             0.00                0.00

!   Added to / Removed from Soil:
!   N in Harvest Residues from Previous Crop         0.00
!   N from Organic Applications                      0.00
!   N from senesced plant matter                     0.74
!   N immobilized                                    0.00
!   N mineralized                                                       95.22

!   Total N balance                              18903.92            18903.92
!   Balance                                                             0.000

!===============================================================================

*DSSAT Cropping System Model Ver. 4.7.5.008 -release  JAN 07, 2021 20:33:24

*RUN   8        : ERiMA DCC1                MZCER047 ETMZmelk    1
 MODEL          : MZCER047 - Maize
 EXPERIMENT     : ETMZmelk SN MELKSSAL
 DATA PATH      : C:\IRI\Python_Dash\ET_DSS_hist\TEST\
 TREATMENT  1   : ERiMA DCC1                MZCER047
  


!                                        INITIAL Year/Doy      FINAL Year/Doy
!                                                1988/165            1988/270
!SOIL N BALANCE                                 -----------kg N/ha-----------

!   Soil Humus N                                 18903.17            18803.53
!   Soil Litter N                                    0.00                0.95
!   N in Surface Residue                             0.00                0.00

!   Added to / Removed from Soil:
!   N in Harvest Residues from Previous Crop         0.00
!   N from Organic Applications                      0.00
!   N from senesced plant matter                     1.37
!   N immobilized                                    0.00
!   N mineralized                                                      100.06

!   Total N balance                              18904.54            18904.54
!   Balance                                                             0.002

!===============================================================================

*DSSAT Cropping System Model Ver. 4.7.5.008 -release  JAN 07, 2021 20:33:24

*RUN   9        : ERiMA DCC1                MZCER047 ETMZmelk    1
 MODEL          : MZCER047 - Maize
 EXPERIMENT     : ETMZmelk SN MELKSSAL
 DATA PATH      : C:\IRI\Python_Dash\ET_DSS_hist\TEST\
 TREATMENT  1   : ERiMA DCC1                MZCER047
  


!                                        INITIAL Year/Doy      FINAL Year/Doy
!                                                1989/165            1989/270
!SOIL N BALANCE                                 -----------kg N/ha-----------

!   Soil Humus N                                 18903.17            18800.42
!   Soil Litter N                                    0.00                1.12
!   N in Surface Residue                             0.00                0.00

!   Added to / Removed from Soil:
!   N in Harvest Residues from Previous Crop         0.00
!   N from Organic Applications                      0.00
!   N from senesced plant matter                     1.57
!   N immobilized                                    0.00
!   N mineralized                                                      103.20

!   Total N balance                              18904.75            18904.75
!   Balance                                                             0.000

!===============================================================================

*DSSAT Cropping System Model Ver. 4.7.5.008 -release  JAN 07, 2021 20:33:24

*RUN  10        : ERiMA DCC1                MZCER047 ETMZmelk    1
 MODEL          : MZCER047 - Maize
 EXPERIMENT     : ETMZmelk SN MELKSSAL
 DATA PATH      : C:\IRI\Python_Dash\ET_DSS_hist\TEST\
 TREATMENT  1   : ERiMA DCC1                MZCER047
  


!                                        INITIAL Year/Doy      FINAL Year/Doy
!                                                1990/165            1990/270
!SOIL N BALANCE                                 -----------kg N/ha-----------

!   Soil Humus N                                 18903.17            18798.46
!   Soil Litter N                                    0.00                1.24
!   N in Surface Residue                             0.00                0.00

!   Added to / Removed from Soil:
!   N in Harvest Residues from Previous Crop         0.00
!   N from Organic Applications                      0.00
!   N from senesced plant matter                     1.77
!   N immobilized                                    0.00
!   N mineralized                                                      105.24

!   Total N balance                              18904.94            18904.94
!   Balance                                                             0.002

!===============================================================================

*DSSAT Cropping System Model Ver. 4.7.5.008 -release  JAN 07, 2021 20:33:24

*RUN  11        : ERiMA DCC1                MZCER047 ETMZmelk    1
 MODEL          : MZCER047 - Maize
 EXPERIMENT     : ETMZmelk SN MELKSSAL
 DATA PATH      : C:\IRI\Python_Dash\ET_DSS_hist\TEST\
 TREATMENT  1   : ERiMA DCC1                MZCER047
  


!                                        INITIAL Year/Doy      FINAL Year/Doy
!                                                1991/165            1991/269
!SOIL N BALANCE                                 -----------kg N/ha-----------

!   Soil Humus N                                 18903.17            18802.22
!   Soil Litter N                                    0.00                1.35
!   N in Surface Residue                             0.00                0.00

!   Added to / Removed from Soil:
!   N in Harvest Residues from Previous Crop         0.00
!   N from Organic Applications                      0.00
!   N from senesced plant matter                     1.80
!   N immobilized                                    0.00
!   N mineralized                                                      101.40

!   Total N balance                              18904.98            18904.97
!   Balance                                                            -0.002

!===============================================================================

*DSSAT Cropping System Model Ver. 4.7.5.008 -release  JAN 07, 2021 20:33:24

*RUN  12        : ERiMA DCC1                MZCER047 ETMZmelk    1
 MODEL          : MZCER047 - Maize
 EXPERIMENT     : ETMZmelk SN MELKSSAL
 DATA PATH      : C:\IRI\Python_Dash\ET_DSS_hist\TEST\
 TREATMENT  1   : ERiMA DCC1                MZCER047
  


!                                        INITIAL Year/Doy      FINAL Year/Doy
!                                                1992/165            1992/271
!SOIL N BALANCE                                 -----------kg N/ha-----------

!   Soil Humus N                                 18903.17            18800.86
!   Soil Litter N                                    0.00                1.37
!   N in Surface Residue                             0.00                0.00

!   Added to / Removed from Soil:
!   N in Harvest Residues from Previous Crop         0.00
!   N from Organic Applications                      0.00
!   N from senesced plant matter                     1.98
!   N immobilized                                    0.00
!   N mineralized                                                      102.92

!   Total N balance                              18905.15            18905.15
!   Balance                                                            -0.002

!===============================================================================

*DSSAT Cropping System Model Ver. 4.7.5.008 -release  JAN 07, 2021 20:33:24

*RUN  13        : ERiMA DCC1                MZCER047 ETMZmelk    1
 MODEL          : MZCER047 - Maize
 EXPERIMENT     : ETMZmelk SN MELKSSAL
 DATA PATH      : C:\IRI\Python_Dash\ET_DSS_hist\TEST\
 TREATMENT  1   : ERiMA DCC1                MZCER047
  


!                                        INITIAL Year/Doy      FINAL Year/Doy
!                                                1993/165            1993/272
!SOIL N BALANCE                                 -----------kg N/ha-----------

!   Soil Humus N                                 18903.17            18797.92
!   Soil Litter N                                    0.00                1.13
!   N in Surface Residue                             0.00                0.00

!   Added to / Removed from Soil:
!   N in Harvest Residues from Previous Crop         0.00
!   N from Organic Applications                      0.00
!   N from senesced plant matter                     1.68
!   N immobilized                                    0.00
!   N mineralized                                                      105.82

!   Total N balance                              18904.86            18904.86
!   Balance                                                             0.002

!===============================================================================

*DSSAT Cropping System Model Ver. 4.7.5.008 -release  JAN 07, 2021 20:33:24

*RUN  14        : ERiMA DCC1                MZCER047 ETMZmelk    1
 MODEL          : MZCER047 - Maize
 EXPERIMENT     : ETMZmelk SN MELKSSAL
 DATA PATH      : C:\IRI\Python_Dash\ET_DSS_hist\TEST\
 TREATMENT  1   : ERiMA DCC1                MZCER047
  


!                                        INITIAL Year/Doy      FINAL Year/Doy
!                                                1994/165            1994/271
!SOIL N BALANCE                                 -----------kg N/ha-----------

!   Soil Humus N                                 18903.17            18802.22
!   Soil Litter N                                    0.00                1.40
!   N in Surface Residue                             0.00                0.00

!   Added to / Removed from Soil:
!   N in Harvest Residues from Previous Crop         0.00
!   N from Organic Applications                      0.00
!   N from senesced plant matter                     1.88
!   N immobilized                                    0.00
!   N mineralized                                                      101.44

!   Total N balance                              18905.05            18905.05
!   Balance                                                             0.000

!===============================================================================

*DSSAT Cropping System Model Ver. 4.7.5.008 -release  JAN 07, 2021 20:33:24

*RUN  15        : ERiMA DCC1                MZCER047 ETMZmelk    1
 MODEL          : MZCER047 - Maize
 EXPERIMENT     : ETMZmelk SN MELKSSAL
 DATA PATH      : C:\IRI\Python_Dash\ET_DSS_hist\TEST\
 TREATMENT  1   : ERiMA DCC1                MZCER047
  


!                                        INITIAL Year/Doy      FINAL Year/Doy
!                                                1995/165            1995/269
!SOIL N BALANCE                                 -----------kg N/ha-----------

!   Soil Humus N                                 18903.17            18799.98
!   Soil Litter N                                    0.00                1.11
!   N in Surface Residue                             0.00                0.00

!   Added to / Removed from Soil:
!   N in Harvest Residues from Previous Crop         0.00
!   N from Organic Applications                      0.00
!   N from senesced plant matter                     1.63
!   N immobilized                                    0.00
!   N mineralized                                                      103.71

!   Total N balance                              18904.80            18904.80
!   Balance                                                             0.002

!===============================================================================

*DSSAT Cropping System Model Ver. 4.7.5.008 -release  JAN 07, 2021 20:33:24

*RUN  16        : ERiMA DCC1                MZCER047 ETMZmelk    1
 MODEL          : MZCER047 - Maize
 EXPERIMENT     : ETMZmelk SN MELKSSAL
 DATA PATH      : C:\IRI\Python_Dash\ET_DSS_hist\TEST\
 TREATMENT  1   : ERiMA DCC1                MZCER047
  


!                                        INITIAL Year/Doy      FINAL Year/Doy
!                                                1996/165            1996/273
!SOIL N BALANCE                                 -----------kg N/ha-----------

!   Soil Humus N                                 18903.17            18801.79
!   Soil Litter N                                    0.00                1.22
!   N in Surface Residue                             0.00                0.00

!   Added to / Removed from Soil:
!   N in Harvest Residues from Previous Crop         0.00
!   N from Organic Applications                      0.00
!   N from senesced plant matter                     1.67
!   N immobilized                                    0.00
!   N mineralized                                                      101.83

!   Total N balance                              18904.84            18904.84
!   Balance                                                            -0.002

!===============================================================================

*DSSAT Cropping System Model Ver. 4.7.5.008 -release  JAN 07, 2021 20:33:24

*RUN  17        : ERiMA DCC1                MZCER047 ETMZmelk    1
 MODEL          : MZCER047 - Maize
 EXPERIMENT     : ETMZmelk SN MELKSSAL
 DATA PATH      : C:\IRI\Python_Dash\ET_DSS_hist\TEST\
 TREATMENT  1   : ERiMA DCC1                MZCER047
  


!                                        INITIAL Year/Doy      FINAL Year/Doy
!                                                1997/165            1997/267
!SOIL N BALANCE                                 -----------kg N/ha-----------

!   Soil Humus N                                 18903.17            18803.15
!   Soil Litter N                                    0.00                1.34
!   N in Surface Residue                             0.00                0.00

!   Added to / Removed from Soil:
!   N in Harvest Residues from Previous Crop         0.00
!   N from Organic Applications                      0.00
!   N from senesced plant matter                     1.73
!   N immobilized                                    0.00
!   N mineralized                                                      100.41

!   Total N balance                              18904.90            18904.90
!   Balance                                                             0.002

!===============================================================================

*DSSAT Cropping System Model Ver. 4.7.5.008 -release  JAN 07, 2021 20:33:24

*RUN  18        : ERiMA DCC1                MZCER047 ETMZmelk    1
 MODEL          : MZCER047 - Maize
 EXPERIMENT     : ETMZmelk SN MELKSSAL
 DATA PATH      : C:\IRI\Python_Dash\ET_DSS_hist\TEST\
 TREATMENT  1   : ERiMA DCC1                MZCER047
  


!                                        INITIAL Year/Doy      FINAL Year/Doy
!                                                1998/165            1998/270
!SOIL N BALANCE                                 -----------kg N/ha-----------

!   Soil Humus N                                 18903.17            18798.04
!   Soil Litter N                                    0.00                1.13
!   N in Surface Residue                             0.00                0.00

!   Added to / Removed from Soil:
!   N in Harvest Residues from Previous Crop         0.00
!   N from Organic Applications                      0.00
!   N from senesced plant matter                     1.60
!   N immobilized                                    0.00
!   N mineralized                                                      105.61

!   Total N balance                              18904.77            18904.78
!   Balance                                                             0.002

!===============================================================================

*DSSAT Cropping System Model Ver. 4.7.5.008 -release  JAN 07, 2021 20:33:24

*RUN  19        : ERiMA DCC1                MZCER047 ETMZmelk    1
 MODEL          : MZCER047 - Maize
 EXPERIMENT     : ETMZmelk SN MELKSSAL
 DATA PATH      : C:\IRI\Python_Dash\ET_DSS_hist\TEST\
 TREATMENT  1   : ERiMA DCC1                MZCER047
  


!                                        INITIAL Year/Doy      FINAL Year/Doy
!                                                1999/165            1999/274
!SOIL N BALANCE                                 -----------kg N/ha-----------

!   Soil Humus N                                 18903.17            18803.67
!   Soil Litter N                                    0.00                1.39
!   N in Surface Residue                             0.00                0.00

!   Added to / Removed from Soil:
!   N in Harvest Residues from Previous Crop         0.00
!   N from Organic Applications                      0.00
!   N from senesced plant matter                     1.69
!   N immobilized                                    0.00
!   N mineralized                                                       99.81

!   Total N balance                              18904.86            18904.87
!   Balance                                                             0.004

!===============================================================================

*DSSAT Cropping System Model Ver. 4.7.5.008 -release  JAN 07, 2021 20:33:24

*RUN  20        : ERiMA DCC1                MZCER047 ETMZmelk    1
 MODEL          : MZCER047 - Maize
 EXPERIMENT     : ETMZmelk SN MELKSSAL
 DATA PATH      : C:\IRI\Python_Dash\ET_DSS_hist\TEST\
 TREATMENT  1   : ERiMA DCC1                MZCER047
  


!                                        INITIAL Year/Doy      FINAL Year/Doy
!                                                2000/165            2000/271
!SOIL N BALANCE                                 -----------kg N/ha-----------

!   Soil Humus N                                 18903.17            18800.90
!   Soil Litter N                                    0.00                1.08
!   N in Surface Residue                             0.00                0.00

!   Added to / Removed from Soil:
!   N in Harvest Residues from Previous Crop         0.00
!   N from Organic Applications                      0.00
!   N from senesced plant matter                     1.47
!   N immobilized                                    0.00
!   N mineralized                                                      102.67

!   Total N balance                              18904.65            18904.65
!   Balance                                                             0.000

!===============================================================================

*DSSAT Cropping System Model Ver. 4.7.5.008 -release  JAN 07, 2021 20:33:24

*RUN  21        : ERiMA DCC1                MZCER047 ETMZmelk    1
 MODEL          : MZCER047 - Maize
 EXPERIMENT     : ETMZmelk SN MELKSSAL
 DATA PATH      : C:\IRI\Python_Dash\ET_DSS_hist\TEST\
 TREATMENT  1   : ERiMA DCC1                MZCER047
  


!                                        INITIAL Year/Doy      FINAL Year/Doy
!                                                2001/165            2001/271
!SOIL N BALANCE                                 -----------kg N/ha-----------

!   Soil Humus N                                 18903.17            18800.64
!   Soil Litter N                                    0.00                1.38
!   N in Surface Residue                             0.00                0.00

!   Added to / Removed from Soil:
!   N in Harvest Residues from Previous Crop         0.00
!   N from Organic Applications                      0.00
!   N from senesced plant matter                     1.80
!   N immobilized                                    0.00
!   N mineralized                                                      102.95

!   Total N balance                              18904.98            18904.97
!   Balance                                                            -0.004

!===============================================================================

*DSSAT Cropping System Model Ver. 4.7.5.008 -release  JAN 07, 2021 20:33:24

*RUN  22        : ERiMA DCC1                MZCER047 ETMZmelk    1
 MODEL          : MZCER047 - Maize
 EXPERIMENT     : ETMZmelk SN MELKSSAL
 DATA PATH      : C:\IRI\Python_Dash\ET_DSS_hist\TEST\
 TREATMENT  1   : ERiMA DCC1                MZCER047
  


!                                        INITIAL Year/Doy      FINAL Year/Doy
!                                                2002/165            2002/267
!SOIL N BALANCE                                 -----------kg N/ha-----------

!   Soil Humus N                                 18903.17            18803.48
!   Soil Litter N                                    0.00                0.59
!   N in Surface Residue                             0.00                0.00

!   Added to / Removed from Soil:
!   N in Harvest Residues from Previous Crop         0.00
!   N from Organic Applications                      0.00
!   N from senesced plant matter                     0.84
!   N immobilized                                    0.00
!   N mineralized                                                       99.94

!   Total N balance                              18904.01            18904.01
!   Balance                                                            -0.002

!===============================================================================

*DSSAT Cropping System Model Ver. 4.7.5.008 -release  JAN 07, 2021 20:33:24

*RUN  23        : ERiMA DCC1                MZCER047 ETMZmelk    1
 MODEL          : MZCER047 - Maize
 EXPERIMENT     : ETMZmelk SN MELKSSAL
 DATA PATH      : C:\IRI\Python_Dash\ET_DSS_hist\TEST\
 TREATMENT  1   : ERiMA DCC1                MZCER047
  


!                                        INITIAL Year/Doy      FINAL Year/Doy
!                                                2003/165            2003/269
!SOIL N BALANCE                                 -----------kg N/ha-----------

!   Soil Humus N                                 18903.17            18801.16
!   Soil Litter N                                    0.00                0.96
!   N in Surface Residue                             0.00                0.00

!   Added to / Removed from Soil:
!   N in Harvest Residues from Previous Crop         0.00
!   N from Organic Applications                      0.00
!   N from senesced plant matter                     1.39
!   N immobilized                                    0.00
!   N mineralized                                                      102.44

!   Total N balance                              18904.56            18904.56
!   Balance                                                             0.002

!===============================================================================

*DSSAT Cropping System Model Ver. 4.7.5.008 -release  JAN 07, 2021 20:33:24

*RUN  24        : ERiMA DCC1                MZCER047 ETMZmelk    1
 MODEL          : MZCER047 - Maize
 EXPERIMENT     : ETMZmelk SN MELKSSAL
 DATA PATH      : C:\IRI\Python_Dash\ET_DSS_hist\TEST\
 TREATMENT  1   : ERiMA DCC1                MZCER047
  


!                                        INITIAL Year/Doy      FINAL Year/Doy
!                                                2004/165            2004/269
!SOIL N BALANCE                                 -----------kg N/ha-----------

!   Soil Humus N                                 18903.17            18802.73
!   Soil Litter N                                    0.00                1.26
!   N in Surface Residue                             0.00                0.00

!   Added to / Removed from Soil:
!   N in Harvest Residues from Previous Crop         0.00
!   N from Organic Applications                      0.00
!   N from senesced plant matter                     1.63
!   N immobilized                                    0.00
!   N mineralized                                                      100.81

!   Total N balance                              18904.80            18904.80
!   Balance                                                             0.000

!===============================================================================

*DSSAT Cropping System Model Ver. 4.7.5.008 -release  JAN 07, 2021 20:33:24

*RUN  25        : ERiMA DCC1                MZCER047 ETMZmelk    1
 MODEL          : MZCER047 - Maize
 EXPERIMENT     : ETMZmelk SN MELKSSAL
 DATA PATH      : C:\IRI\Python_Dash\ET_DSS_hist\TEST\
 TREATMENT  1   : ERiMA DCC1                MZCER047
  


!                                        INITIAL Year/Doy      FINAL Year/Doy
!                                                2005/165            2005/269
!SOIL N BALANCE                                 -----------kg N/ha-----------

!   Soil Humus N                                 18903.17            18803.29
!   Soil Litter N                                    0.00                1.15
!   N in Surface Residue                             0.00                0.00

!   Added to / Removed from Soil:
!   N in Harvest Residues from Previous Crop         0.00
!   N from Organic Applications                      0.00
!   N from senesced plant matter                     1.50
!   N immobilized                                    0.00
!   N mineralized                                                      100.24

!   Total N balance                              18904.67            18904.68
!   Balance                                                             0.002

!===============================================================================

*DSSAT Cropping System Model Ver. 4.7.5.008 -release  JAN 07, 2021 20:33:24

*RUN  26        : ERiMA DCC1                MZCER047 ETMZmelk    1
 MODEL          : MZCER047 - Maize
 EXPERIMENT     : ETMZmelk SN MELKSSAL
 DATA PATH      : C:\IRI\Python_Dash\ET_DSS_hist\TEST\
 TREATMENT  1   : ERiMA DCC1                MZCER047
  


!                                        INITIAL Year/Doy      FINAL Year/Doy
!                                                2006/165            2006/270
!SOIL N BALANCE                                 -----------kg N/ha-----------

!   Soil Humus N                                 18903.17            18801.11
!   Soil Litter N                                    0.00                1.10
!   N in Surface Residue                             0.00                0.00

!   Added to / Removed from Soil:
!   N in Harvest Residues from Previous Crop         0.00
!   N from Organic Applications                      0.00
!   N from senesced plant matter                     1.51
!   N immobilized                                    0.00
!   N mineralized                                                      102.48

!   Total N balance                              18904.69            18904.69
!   Balance                                                             0.002

!===============================================================================

*DSSAT Cropping System Model Ver. 4.7.5.008 -release  JAN 07, 2021 20:33:24

*RUN  27        : ERiMA DCC1                MZCER047 ETMZmelk    1
 MODEL          : MZCER047 - Maize
 EXPERIMENT     : ETMZmelk SN MELKSSAL
 DATA PATH      : C:\IRI\Python_Dash\ET_DSS_hist\TEST\
 TREATMENT  1   : ERiMA DCC1                MZCER047
  


!                                        INITIAL Year/Doy      FINAL Year/Doy
!                                                2007/165            2007/272
!SOIL N BALANCE                                 -----------kg N/ha-----------

!   Soil Humus N                                 18903.17            18801.50
!   Soil Litter N                                    0.00                0.90
!   N in Surface Residue                             0.00                0.00

!   Added to / Removed from Soil:
!   N in Harvest Residues from Previous Crop         0.00
!   N from Organic Applications                      0.00
!   N from senesced plant matter                     1.21
!   N immobilized                                    0.00
!   N mineralized                                                      101.99

!   Total N balance                              18904.39            18904.39
!   Balance                                                             0.002

!===============================================================================

*DSSAT Cropping System Model Ver. 4.7.5.008 -release  JAN 07, 2021 20:33:24

*RUN  28        : ERiMA DCC1                MZCER047 ETMZmelk    1
 MODEL          : MZCER047 - Maize
 EXPERIMENT     : ETMZmelk SN MELKSSAL
 DATA PATH      : C:\IRI\Python_Dash\ET_DSS_hist\TEST\
 TREATMENT  1   : ERiMA DCC1                MZCER047
  


!                                        INITIAL Year/Doy      FINAL Year/Doy
!                                                2008/165            2008/270
!SOIL N BALANCE                                 -----------kg N/ha-----------

!   Soil Humus N                                 18903.17            18800.04
!   Soil Litter N                                    0.00                1.15
!   N in Surface Residue                             0.00                0.00

!   Added to / Removed from Soil:
!   N in Harvest Residues from Previous Crop         0.00
!   N from Organic Applications                      0.00
!   N from senesced plant matter                     1.64
!   N immobilized                                    0.00
!   N mineralized                                                      103.63

!   Total N balance                              18904.81            18904.81
!   Balance                                                             0.002

!===============================================================================

*DSSAT Cropping System Model Ver. 4.7.5.008 -release  JAN 07, 2021 20:33:24

*RUN  29        : ERiMA DCC1                MZCER047 ETMZmelk    1
 MODEL          : MZCER047 - Maize
 EXPERIMENT     : ETMZmelk SN MELKSSAL
 DATA PATH      : C:\IRI\Python_Dash\ET_DSS_hist\TEST\
 TREATMENT  1   : ERiMA DCC1                MZCER047
  


!                                        INITIAL Year/Doy      FINAL Year/Doy
!                                                2009/165            2009/264
!SOIL N BALANCE                                 -----------kg N/ha-----------

!   Soil Humus N                                 18903.17            18803.41
!   Soil Litter N                                    0.00                1.06
!   N in Surface Residue                             0.00                0.00

!   Added to / Removed from Soil:
!   N in Harvest Residues from Previous Crop         0.00
!   N from Organic Applications                      0.00
!   N from senesced plant matter                     1.39
!   N immobilized                                    0.00
!   N mineralized                                                      100.10

!   Total N balance                              18904.57            18904.57
!   Balance                                                             0.002

!===============================================================================

*DSSAT Cropping System Model Ver. 4.7.5.008 -release  JAN 07, 2021 20:33:24

*RUN  30        : ERiMA DCC1                MZCER047 ETMZmelk    1
 MODEL          : MZCER047 - Maize
 EXPERIMENT     : ETMZmelk SN MELKSSAL
 DATA PATH      : C:\IRI\Python_Dash\ET_DSS_hist\TEST\
 TREATMENT  1   : ERiMA DCC1                MZCER047
  


!                                        INITIAL Year/Doy      FINAL Year/Doy
!                                                2010/165            2010/260
!SOIL N BALANCE                                 -----------kg N/ha-----------

!   Soil Humus N                                 18903.17            18806.21
!   Soil Litter N                                    0.00                0.87
!   N in Surface Residue                             0.00                0.00

!   Added to / Removed from Soil:
!   N in Harvest Residues from Previous Crop         0.00
!   N from Organic Applications                      0.00
!   N from senesced plant matter                     1.24
!   N immobilized                                    0.00
!   N mineralized                                                       97.33

!   Total N balance                              18904.41            18904.41
!   Balance                                                            -0.002

!===============================================================================

*DSSAT Cropping System Model Ver. 4.7.5.008 -release  JAN 07, 2021 20:33:24

*RUN  31        : ERiMA DCC1                MZCER047 ETMZmelk    1
 MODEL          : MZCER047 - Maize
 EXPERIMENT     : ETMZmelk SN MELKSSAL
 DATA PATH      : C:\IRI\Python_Dash\ET_DSS_hist\TEST\
 TREATMENT  1   : ERiMA DCC1                MZCER047
  


!                                        INITIAL Year/Doy      FINAL Year/Doy
!                                                2011/165            2011/281
!SOIL N BALANCE                                 -----------kg N/ha-----------

!   Soil Humus N                                 18903.17            18798.34
!   Soil Litter N                                    0.00                1.65
!   N in Surface Residue                             0.00                0.00

!   Added to / Removed from Soil:
!   N in Harvest Residues from Previous Crop         0.00
!   N from Organic Applications                      0.00
!   N from senesced plant matter                     2.19
!   N immobilized                                    0.00
!   N mineralized                                                      105.37

!   Total N balance                              18905.36            18905.36
!   Balance                                                             0.000

!===============================================================================

*DSSAT Cropping System Model Ver. 4.7.5.008 -release  JAN 07, 2021 20:33:24

*RUN  32        : ERiMA DCC1                MZCER047 ETMZmelk    1
 MODEL          : MZCER047 - Maize
 EXPERIMENT     : ETMZmelk SN MELKSSAL
 DATA PATH      : C:\IRI\Python_Dash\ET_DSS_hist\TEST\
 TREATMENT  1   : ERiMA DCC1                MZCER047
  


!                                        INITIAL Year/Doy      FINAL Year/Doy
!                                                2012/165            2012/282
!SOIL N BALANCE                                 -----------kg N/ha-----------

!   Soil Humus N                                 18903.17            18796.93
!   Soil Litter N                                    0.00                1.58
!   N in Surface Residue                             0.00                0.00

!   Added to / Removed from Soil:
!   N in Harvest Residues from Previous Crop         0.00
!   N from Organic Applications                      0.00
!   N from senesced plant matter                     2.17
!   N immobilized                                    0.00
!   N mineralized                                                      106.83

!   Total N balance                              18905.34            18905.34
!   Balance                                                            -0.002

!===============================================================================

*DSSAT Cropping System Model Ver. 4.7.5.008 -release  JAN 07, 2021 20:33:24

*RUN  33        : ERiMA DCC1                MZCER047 ETMZmelk    1
 MODEL          : MZCER047 - Maize
 EXPERIMENT     : ETMZmelk SN MELKSSAL
 DATA PATH      : C:\IRI\Python_Dash\ET_DSS_hist\TEST\
 TREATMENT  1   : ERiMA DCC1                MZCER047
  


!                                        INITIAL Year/Doy      FINAL Year/Doy
!                                                2013/165            2013/284
!SOIL N BALANCE                                 -----------kg N/ha-----------

!   Soil Humus N                                 18903.17            18797.19
!   Soil Litter N                                    0.00                1.59
!   N in Surface Residue                             0.00                0.00

!   Added to / Removed from Soil:
!   N in Harvest Residues from Previous Crop         0.00
!   N from Organic Applications                      0.00
!   N from senesced plant matter                     2.20
!   N immobilized                                    0.00
!   N mineralized                                                      106.60

!   Total N balance                              18905.38            18905.38
!   Balance                                                             0.004

!===============================================================================

*DSSAT Cropping System Model Ver. 4.7.5.008 -release  JAN 07, 2021 20:33:24

*RUN  34        : ERiMA DCC1                MZCER047 ETMZmelk    1
 MODEL          : MZCER047 - Maize
 EXPERIMENT     : ETMZmelk SN MELKSSAL
 DATA PATH      : C:\IRI\Python_Dash\ET_DSS_hist\TEST\
 TREATMENT  1   : ERiMA DCC1                MZCER047
  


!                                        INITIAL Year/Doy      FINAL Year/Doy
!                                                2014/165            2014/283
!SOIL N BALANCE                                 -----------kg N/ha-----------

!   Soil Humus N                                 18903.17            18797.31
!   Soil Litter N                                    0.00                1.29
!   N in Surface Residue                             0.00                0.00

!   Added to / Removed from Soil:
!   N in Harvest Residues from Previous Crop         0.00
!   N from Organic Applications                      0.00
!   N from senesced plant matter                     1.71
!   N immobilized                                    0.00
!   N mineralized                                                      106.28

!   Total N balance                              18904.88            18904.88
!   Balance                                                             0.004

!===============================================================================

*DSSAT Cropping System Model Ver. 4.7.5.008 -release  JAN 07, 2021 20:33:24

*RUN  35        : ERiMA DCC1                MZCER047 ETMZmelk    1
 MODEL          : MZCER047 - Maize
 EXPERIMENT     : ETMZmelk SN MELKSSAL
 DATA PATH      : C:\IRI\Python_Dash\ET_DSS_hist\TEST\
 TREATMENT  1   : ERiMA DCC1                MZCER047
  


!                                        INITIAL Year/Doy      FINAL Year/Doy
!                                                2015/165            2015/276
!SOIL N BALANCE                                 -----------kg N/ha-----------

!   Soil Humus N                                 18903.17            18803.40
!   Soil Litter N                                    0.00                1.61
!   N in Surface Residue                             0.00                0.00

!   Added to / Removed from Soil:
!   N in Harvest Residues from Previous Crop         0.00
!   N from Organic Applications                      0.00
!   N from senesced plant matter                     1.82
!   N immobilized                                    0.00
!   N mineralized                                                       99.98

!   Total N balance                              18904.99            18904.99
!   Balance                                                            -0.004

!===============================================================================

*DSSAT Cropping System Model Ver. 4.7.5.008 -release  JAN 07, 2021 20:33:40

*RUN  36        : ERiMA DCC1                MZCER047 ETMZbako    1
 MODEL          : MZCER047 - Maize
 EXPERIMENT     : ETMZbako SN MELKSSAL
 DATA PATH      : C:\IRI\Python_Dash\ET_DSS_hist\TEST\
 TREATMENT  1   : ERiMA DCC1                MZCER047
  


!                                        INITIAL Year/Doy      FINAL Year/Doy
!                                                1981/165            1981/310
!SOIL N BALANCE                                 -----------kg N/ha-----------

!   Soil Humus N                                 18903.17            18771.58
!   Soil Litter N                                    0.00                2.57
!   N in Surface Residue                             0.00                0.00

!   Added to / Removed from Soil:
!   N in Harvest Residues from Previous Crop         0.00
!   N from Organic Applications                      0.00
!   N from senesced plant matter                     3.70
!   N immobilized                                    0.00
!   N mineralized                                                      132.72

!   Total N balance                              18906.88            18906.88
!   Balance                                                             0.002

!===============================================================================

*DSSAT Cropping System Model Ver. 4.7.5.008 -release  JAN 07, 2021 20:33:40

*RUN  37        : ERiMA DCC1                MZCER047 ETMZbako    1
 MODEL          : MZCER047 - Maize
 EXPERIMENT     : ETMZbako SN MELKSSAL
 DATA PATH      : C:\IRI\Python_Dash\ET_DSS_hist\TEST\
 TREATMENT  1   : ERiMA DCC1                MZCER047
  


!                                        INITIAL Year/Doy      FINAL Year/Doy
!                                                1982/165            1982/306
!SOIL N BALANCE                                 -----------kg N/ha-----------

!   Soil Humus N                                 18903.17            18769.30
!   Soil Litter N                                    0.00                2.34
!   N in Surface Residue                             0.00                0.00

!   Added to / Removed from Soil:
!   N in Harvest Residues from Previous Crop         0.00
!   N from Organic Applications                      0.00
!   N from senesced plant matter                     3.34
!   N immobilized                                    0.00
!   N mineralized                                                      134.87

!   Total N balance                              18906.51            18906.51
!   Balance                                                             0.000

!===============================================================================

*DSSAT Cropping System Model Ver. 4.7.5.008 -release  JAN 07, 2021 20:33:40

*RUN  38        : ERiMA DCC1                MZCER047 ETMZbako    1
 MODEL          : MZCER047 - Maize
 EXPERIMENT     : ETMZbako SN MELKSSAL
 DATA PATH      : C:\IRI\Python_Dash\ET_DSS_hist\TEST\
 TREATMENT  1   : ERiMA DCC1                MZCER047
  


!                                        INITIAL Year/Doy      FINAL Year/Doy
!                                                1983/165            1983/309
!SOIL N BALANCE                                 -----------kg N/ha-----------

!   Soil Humus N                                 18903.17            18770.31
!   Soil Litter N                                    0.00                2.97
!   N in Surface Residue                             0.00                0.00

!   Added to / Removed from Soil:
!   N in Harvest Residues from Previous Crop         0.00
!   N from Organic Applications                      0.00
!   N from senesced plant matter                     4.48
!   N immobilized                                    0.00
!   N mineralized                                                      134.37

!   Total N balance                              18907.66            18907.65
!   Balance                                                            -0.002

!===============================================================================

*DSSAT Cropping System Model Ver. 4.7.5.008 -release  JAN 07, 2021 20:33:40

*RUN  39        : ERiMA DCC1                MZCER047 ETMZbako    1
 MODEL          : MZCER047 - Maize
 EXPERIMENT     : ETMZbako SN MELKSSAL
 DATA PATH      : C:\IRI\Python_Dash\ET_DSS_hist\TEST\
 TREATMENT  1   : ERiMA DCC1                MZCER047
  


!                                        INITIAL Year/Doy      FINAL Year/Doy
!                                                1984/165            1984/308
!SOIL N BALANCE                                 -----------kg N/ha-----------

!   Soil Humus N                                 18903.17            18774.37
!   Soil Litter N                                    0.00                2.46
!   N in Surface Residue                             0.00                0.00

!   Added to / Removed from Soil:
!   N in Harvest Residues from Previous Crop         0.00
!   N from Organic Applications                      0.00
!   N from senesced plant matter                     2.81
!   N immobilized                                    0.00
!   N mineralized                                                      129.14

!   Total N balance                              18905.98            18905.98
!   Balance                                                            -0.002

!===============================================================================

*DSSAT Cropping System Model Ver. 4.7.5.008 -release  JAN 07, 2021 20:33:40

*RUN  40        : ERiMA DCC1                MZCER047 ETMZbako    1
 MODEL          : MZCER047 - Maize
 EXPERIMENT     : ETMZbako SN MELKSSAL
 DATA PATH      : C:\IRI\Python_Dash\ET_DSS_hist\TEST\
 TREATMENT  1   : ERiMA DCC1                MZCER047
  


!                                        INITIAL Year/Doy      FINAL Year/Doy
!                                                1985/165            1985/309
!SOIL N BALANCE                                 -----------kg N/ha-----------

!   Soil Humus N                                 18903.17            18772.86
!   Soil Litter N                                    0.00                2.39
!   N in Surface Residue                             0.00                0.00

!   Added to / Removed from Soil:
!   N in Harvest Residues from Previous Crop         0.00
!   N from Organic Applications                      0.00
!   N from senesced plant matter                     2.87
!   N immobilized                                    0.00
!   N mineralized                                                      130.79

!   Total N balance                              18906.04            18906.04
!   Balance                                                            -0.002

!===============================================================================

*DSSAT Cropping System Model Ver. 4.7.5.008 -release  JAN 07, 2021 20:33:40

*RUN  41        : ERiMA DCC1                MZCER047 ETMZbako    1
 MODEL          : MZCER047 - Maize
 EXPERIMENT     : ETMZbako SN MELKSSAL
 DATA PATH      : C:\IRI\Python_Dash\ET_DSS_hist\TEST\
 TREATMENT  1   : ERiMA DCC1                MZCER047
  


!                                        INITIAL Year/Doy      FINAL Year/Doy
!                                                1986/165            1986/304
!SOIL N BALANCE                                 -----------kg N/ha-----------

!   Soil Humus N                                 18903.17            18775.23
!   Soil Litter N                                    0.00                2.63
!   N in Surface Residue                             0.00                0.00

!   Added to / Removed from Soil:
!   N in Harvest Residues from Previous Crop         0.00
!   N from Organic Applications                      0.00
!   N from senesced plant matter                     3.23
!   N immobilized                                    0.00
!   N mineralized                                                      128.54

!   Total N balance                              18906.40            18906.40
!   Balance                                                            -0.002

!===============================================================================

*DSSAT Cropping System Model Ver. 4.7.5.008 -release  JAN 07, 2021 20:33:40

*RUN  42        : ERiMA DCC1                MZCER047 ETMZbako    1
 MODEL          : MZCER047 - Maize
 EXPERIMENT     : ETMZbako SN MELKSSAL
 DATA PATH      : C:\IRI\Python_Dash\ET_DSS_hist\TEST\
 TREATMENT  1   : ERiMA DCC1                MZCER047
  


!                                        INITIAL Year/Doy      FINAL Year/Doy
!                                                1987/165            1987/309
!SOIL N BALANCE                                 -----------kg N/ha-----------

!   Soil Humus N                                 18903.17            18770.83
!   Soil Litter N                                    0.00                2.23
!   N in Surface Residue                             0.00                0.00

!   Added to / Removed from Soil:
!   N in Harvest Residues from Previous Crop         0.00
!   N from Organic Applications                      0.00
!   N from senesced plant matter                     2.76
!   N immobilized                                    0.00
!   N mineralized                                                      132.86

!   Total N balance                              18905.93            18905.93
!   Balance                                                             0.000

!===============================================================================

*DSSAT Cropping System Model Ver. 4.7.5.008 -release  JAN 07, 2021 20:33:40

*RUN  43        : ERiMA DCC1                MZCER047 ETMZbako    1
 MODEL          : MZCER047 - Maize
 EXPERIMENT     : ETMZbako SN MELKSSAL
 DATA PATH      : C:\IRI\Python_Dash\ET_DSS_hist\TEST\
 TREATMENT  1   : ERiMA DCC1                MZCER047
  


!                                        INITIAL Year/Doy      FINAL Year/Doy
!                                                1988/165            1988/303
!SOIL N BALANCE                                 -----------kg N/ha-----------

!   Soil Humus N                                 18903.17            18771.42
!   Soil Litter N                                    0.00                2.16
!   N in Surface Residue                             0.00                0.00

!   Added to / Removed from Soil:
!   N in Harvest Residues from Previous Crop         0.00
!   N from Organic Applications                      0.00
!   N from senesced plant matter                     3.26
!   N immobilized                                    0.00
!   N mineralized                                                      132.85

!   Total N balance                              18906.44            18906.43
!   Balance                                                            -0.002

!===============================================================================

*DSSAT Cropping System Model Ver. 4.7.5.008 -release  JAN 07, 2021 20:33:40

*RUN  44        : ERiMA DCC1                MZCER047 ETMZbako    1
 MODEL          : MZCER047 - Maize
 EXPERIMENT     : ETMZbako SN MELKSSAL
 DATA PATH      : C:\IRI\Python_Dash\ET_DSS_hist\TEST\
 TREATMENT  1   : ERiMA DCC1                MZCER047
  


!                                        INITIAL Year/Doy      FINAL Year/Doy
!                                                1989/165            1989/309
!SOIL N BALANCE                                 -----------kg N/ha-----------

!   Soil Humus N                                 18903.17            18769.11
!   Soil Litter N                                    0.00                2.49
!   N in Surface Residue                             0.00                0.00

!   Added to / Removed from Soil:
!   N in Harvest Residues from Previous Crop         0.00
!   N from Organic Applications                      0.00
!   N from senesced plant matter                     3.35
!   N immobilized                                    0.00
!   N mineralized                                                      134.92

!   Total N balance                              18906.52            18906.52
!   Balance                                                            -0.002

!===============================================================================

*DSSAT Cropping System Model Ver. 4.7.5.008 -release  JAN 07, 2021 20:33:40

*RUN  45        : ERiMA DCC1                MZCER047 ETMZbako    1
 MODEL          : MZCER047 - Maize
 EXPERIMENT     : ETMZbako SN MELKSSAL
 DATA PATH      : C:\IRI\Python_Dash\ET_DSS_hist\TEST\
 TREATMENT  1   : ERiMA DCC1                MZCER047
  


!                                        INITIAL Year/Doy      FINAL Year/Doy
!                                                1990/165            1990/302
!SOIL N BALANCE                                 -----------kg N/ha-----------

!   Soil Humus N                                 18903.17            18773.65
!   Soil Litter N                                    0.00                2.37
!   N in Surface Residue                             0.00                0.00

!   Added to / Removed from Soil:
!   N in Harvest Residues from Previous Crop         0.00
!   N from Organic Applications                      0.00
!   N from senesced plant matter                     3.49
!   N immobilized                                    0.00
!   N mineralized                                                      130.65

!   Total N balance                              18906.66            18906.66
!   Balance                                                             0.000

!===============================================================================

*DSSAT Cropping System Model Ver. 4.7.5.008 -release  JAN 07, 2021 20:33:40

*RUN  46        : ERiMA DCC1                MZCER047 ETMZbako    1
 MODEL          : MZCER047 - Maize
 EXPERIMENT     : ETMZbako SN MELKSSAL
 DATA PATH      : C:\IRI\Python_Dash\ET_DSS_hist\TEST\
 TREATMENT  1   : ERiMA DCC1                MZCER047
  


!                                        INITIAL Year/Doy      FINAL Year/Doy
!                                                1991/165            1991/311
!SOIL N BALANCE                                 -----------kg N/ha-----------

!   Soil Humus N                                 18903.17            18772.86
!   Soil Litter N                                    0.00                2.75
!   N in Surface Residue                             0.00                0.00

!   Added to / Removed from Soil:
!   N in Harvest Residues from Previous Crop         0.00
!   N from Organic Applications                      0.00
!   N from senesced plant matter                     3.68
!   N immobilized                                    0.00
!   N mineralized                                                      131.25

!   Total N balance                              18906.86            18906.86
!   Balance                                                             0.004

!===============================================================================

*DSSAT Cropping System Model Ver. 4.7.5.008 -release  JAN 07, 2021 20:33:40

*RUN  47        : ERiMA DCC1                MZCER047 ETMZbako    1
 MODEL          : MZCER047 - Maize
 EXPERIMENT     : ETMZbako SN MELKSSAL
 DATA PATH      : C:\IRI\Python_Dash\ET_DSS_hist\TEST\
 TREATMENT  1   : ERiMA DCC1                MZCER047
  


!                                        INITIAL Year/Doy      FINAL Year/Doy
!                                                1992/165            1992/305
!SOIL N BALANCE                                 -----------kg N/ha-----------

!   Soil Humus N                                 18903.17            18769.24
!   Soil Litter N                                    0.00                2.11
!   N in Surface Residue                             0.00                0.00

!   Added to / Removed from Soil:
!   N in Harvest Residues from Previous Crop         0.00
!   N from Organic Applications                      0.00
!   N from senesced plant matter                     2.94
!   N immobilized                                    0.00
!   N mineralized                                                      134.77

!   Total N balance                              18906.11            18906.11
!   Balance                                                             0.000

!===============================================================================

*DSSAT Cropping System Model Ver. 4.7.5.008 -release  JAN 07, 2021 20:33:40

*RUN  48        : ERiMA DCC1                MZCER047 ETMZbako    1
 MODEL          : MZCER047 - Maize
 EXPERIMENT     : ETMZbako SN MELKSSAL
 DATA PATH      : C:\IRI\Python_Dash\ET_DSS_hist\TEST\
 TREATMENT  1   : ERiMA DCC1                MZCER047
  


!                                        INITIAL Year/Doy      FINAL Year/Doy
!                                                1993/165            1993/307
!SOIL N BALANCE                                 -----------kg N/ha-----------

!   Soil Humus N                                 18903.17            18769.03
!   Soil Litter N                                    0.00                2.12
!   N in Surface Residue                             0.00                0.00

!   Added to / Removed from Soil:
!   N in Harvest Residues from Previous Crop         0.00
!   N from Organic Applications                      0.00
!   N from senesced plant matter                     3.11
!   N immobilized                                    0.00
!   N mineralized                                                      135.13

!   Total N balance                              18906.28            18906.28
!   Balance                                                             0.002

!===============================================================================

*DSSAT Cropping System Model Ver. 4.7.5.008 -release  JAN 07, 2021 20:33:40

*RUN  49        : ERiMA DCC1                MZCER047 ETMZbako    1
 MODEL          : MZCER047 - Maize
 EXPERIMENT     : ETMZbako SN MELKSSAL
 DATA PATH      : C:\IRI\Python_Dash\ET_DSS_hist\TEST\
 TREATMENT  1   : ERiMA DCC1                MZCER047
  


!                                        INITIAL Year/Doy      FINAL Year/Doy
!                                                1994/165            1994/309
!SOIL N BALANCE                                 -----------kg N/ha-----------

!   Soil Humus N                                 18903.17            18772.54
!   Soil Litter N                                    0.00                3.08
!   N in Surface Residue                             0.00                0.00

!   Added to / Removed from Soil:
!   N in Harvest Residues from Previous Crop         0.00
!   N from Organic Applications                      0.00
!   N from senesced plant matter                     4.02
!   N immobilized                                    0.00
!   N mineralized                                                      131.57

!   Total N balance                              18907.19            18907.19
!   Balance                                                            -0.002

!===============================================================================

*DSSAT Cropping System Model Ver. 4.7.5.008 -release  JAN 07, 2021 20:33:40

*RUN  50        : ERiMA DCC1                MZCER047 ETMZbako    1
 MODEL          : MZCER047 - Maize
 EXPERIMENT     : ETMZbako SN MELKSSAL
 DATA PATH      : C:\IRI\Python_Dash\ET_DSS_hist\TEST\
 TREATMENT  1   : ERiMA DCC1                MZCER047
  


!                                        INITIAL Year/Doy      FINAL Year/Doy
!                                                1995/165            1995/308
!SOIL N BALANCE                                 -----------kg N/ha-----------

!   Soil Humus N                                 18903.17            18771.32
!   Soil Litter N                                    0.00                2.28
!   N in Surface Residue                             0.00                0.00

!   Added to / Removed from Soil:
!   N in Harvest Residues from Previous Crop         0.00
!   N from Organic Applications                      0.00
!   N from senesced plant matter                     3.10
!   N immobilized                                    0.00
!   N mineralized                                                      132.67

!   Total N balance                              18906.28            18906.28
!   Balance                                                             0.004

!===============================================================================

*DSSAT Cropping System Model Ver. 4.7.5.008 -release  JAN 07, 2021 20:33:40

*RUN  51        : ERiMA DCC1                MZCER047 ETMZbako    1
 MODEL          : MZCER047 - Maize
 EXPERIMENT     : ETMZbako SN MELKSSAL
 DATA PATH      : C:\IRI\Python_Dash\ET_DSS_hist\TEST\
 TREATMENT  1   : ERiMA DCC1                MZCER047
  


!                                        INITIAL Year/Doy      FINAL Year/Doy
!                                                1996/165            1996/308
!SOIL N BALANCE                                 -----------kg N/ha-----------

!   Soil Humus N                                 18903.17            18771.38
!   Soil Litter N                                    0.00                2.70
!   N in Surface Residue                             0.00                0.00

!   Added to / Removed from Soil:
!   N in Harvest Residues from Previous Crop         0.00
!   N from Organic Applications                      0.00
!   N from senesced plant matter                     3.78
!   N immobilized                                    0.00
!   N mineralized                                                      132.88

!   Total N balance                              18906.95            18906.95
!   Balance                                                             0.000

!===============================================================================

*DSSAT Cropping System Model Ver. 4.7.5.008 -release  JAN 07, 2021 20:33:40

*RUN  52        : ERiMA DCC1                MZCER047 ETMZbako    1
 MODEL          : MZCER047 - Maize
 EXPERIMENT     : ETMZbako SN MELKSSAL
 DATA PATH      : C:\IRI\Python_Dash\ET_DSS_hist\TEST\
 TREATMENT  1   : ERiMA DCC1                MZCER047
  


!                                        INITIAL Year/Doy      FINAL Year/Doy
!                                                1997/165            1997/308
!SOIL N BALANCE                                 -----------kg N/ha-----------

!   Soil Humus N                                 18903.17            18768.71
!   Soil Litter N                                    0.00                2.63
!   N in Surface Residue                             0.00                0.00

!   Added to / Removed from Soil:
!   N in Harvest Residues from Previous Crop         0.00
!   N from Organic Applications                      0.00
!   N from senesced plant matter                     3.61
!   N immobilized                                    0.00
!   N mineralized                                                      135.44

!   Total N balance                              18906.78            18906.78
!   Balance                                                             0.000

!===============================================================================

*DSSAT Cropping System Model Ver. 4.7.5.008 -release  JAN 07, 2021 20:33:40

*RUN  53        : ERiMA DCC1                MZCER047 ETMZbako    1
 MODEL          : MZCER047 - Maize
 EXPERIMENT     : ETMZbako SN MELKSSAL
 DATA PATH      : C:\IRI\Python_Dash\ET_DSS_hist\TEST\
 TREATMENT  1   : ERiMA DCC1                MZCER047
  


!                                        INITIAL Year/Doy      FINAL Year/Doy
!                                                1998/165            1998/307
!SOIL N BALANCE                                 -----------kg N/ha-----------

!   Soil Humus N                                 18903.17            18767.40
!   Soil Litter N                                    0.00                2.12
!   N in Surface Residue                             0.00                0.00

!   Added to / Removed from Soil:
!   N in Harvest Residues from Previous Crop         0.00
!   N from Organic Applications                      0.00
!   N from senesced plant matter                     3.20
!   N immobilized                                    0.00
!   N mineralized                                                      136.85

!   Total N balance                              18906.37            18906.37
!   Balance                                                             0.002

!===============================================================================

*DSSAT Cropping System Model Ver. 4.7.5.008 -release  JAN 07, 2021 20:33:40

*RUN  54        : ERiMA DCC1                MZCER047 ETMZbako    1
 MODEL          : MZCER047 - Maize
 EXPERIMENT     : ETMZbako SN MELKSSAL
 DATA PATH      : C:\IRI\Python_Dash\ET_DSS_hist\TEST\
 TREATMENT  1   : ERiMA DCC1                MZCER047
  


!                                        INITIAL Year/Doy      FINAL Year/Doy
!                                                1999/165            1999/309
!SOIL N BALANCE                                 -----------kg N/ha-----------

!   Soil Humus N                                 18903.17            18767.16
!   Soil Litter N                                    0.00                2.68
!   N in Surface Residue                             0.00                0.00

!   Added to / Removed from Soil:
!   N in Harvest Residues from Previous Crop         0.00
!   N from Organic Applications                      0.00
!   N from senesced plant matter                     3.97
!   N immobilized                                    0.00
!   N mineralized                                                      137.30

!   Total N balance                              18907.14            18907.14
!   Balance                                                             0.002

!===============================================================================

*DSSAT Cropping System Model Ver. 4.7.5.008 -release  JAN 07, 2021 20:33:40

*RUN  55        : ERiMA DCC1                MZCER047 ETMZbako    1
 MODEL          : MZCER047 - Maize
 EXPERIMENT     : ETMZbako SN MELKSSAL
 DATA PATH      : C:\IRI\Python_Dash\ET_DSS_hist\TEST\
 TREATMENT  1   : ERiMA DCC1                MZCER047
  


!                                        INITIAL Year/Doy      FINAL Year/Doy
!                                                2000/165            2000/319
!SOIL N BALANCE                                 -----------kg N/ha-----------

!   Soil Humus N                                 18903.17            18767.38
!   Soil Litter N                                    0.00                1.96
!   N in Surface Residue                             0.00                0.00

!   Added to / Removed from Soil:
!   N in Harvest Residues from Previous Crop         0.00
!   N from Organic Applications                      0.00
!   N from senesced plant matter                     2.64
!   N immobilized                                    0.00
!   N mineralized                                                      136.46

!   Total N balance                              18905.81            18905.81
!   Balance                                                            -0.002

!===============================================================================

*DSSAT Cropping System Model Ver. 4.7.5.008 -release  JAN 07, 2021 20:33:40

*RUN  56        : ERiMA DCC1                MZCER047 ETMZbako    1
 MODEL          : MZCER047 - Maize
 EXPERIMENT     : ETMZbako SN MELKSSAL
 DATA PATH      : C:\IRI\Python_Dash\ET_DSS_hist\TEST\
 TREATMENT  1   : ERiMA DCC1                MZCER047
  


!                                        INITIAL Year/Doy      FINAL Year/Doy
!                                                2001/165            2001/305
!SOIL N BALANCE                                 -----------kg N/ha-----------

!   Soil Humus N                                 18903.17            18773.59
!   Soil Litter N                                    0.00                2.16
!   N in Surface Residue                             0.00                0.00

!   Added to / Removed from Soil:
!   N in Harvest Residues from Previous Crop         0.00
!   N from Organic Applications                      0.00
!   N from senesced plant matter                     3.31
!   N immobilized                                    0.00
!   N mineralized                                                      130.73

!   Total N balance                              18906.48            18906.48
!   Balance                                                            -0.002

!===============================================================================

*DSSAT Cropping System Model Ver. 4.7.5.008 -release  JAN 07, 2021 20:33:40

*RUN  57        : ERiMA DCC1                MZCER047 ETMZbako    1
 MODEL          : MZCER047 - Maize
 EXPERIMENT     : ETMZbako SN MELKSSAL
 DATA PATH      : C:\IRI\Python_Dash\ET_DSS_hist\TEST\
 TREATMENT  1   : ERiMA DCC1                MZCER047
  


!                                        INITIAL Year/Doy      FINAL Year/Doy
!                                                2002/165            2002/302
!SOIL N BALANCE                                 -----------kg N/ha-----------

!   Soil Humus N                                 18903.17            18783.08
!   Soil Litter N                                    0.00                3.13
!   N in Surface Residue                             0.00                0.00

!   Added to / Removed from Soil:
!   N in Harvest Residues from Previous Crop         0.00
!   N from Organic Applications                      0.00
!   N from senesced plant matter                     3.88
!   N immobilized                                    0.00
!   N mineralized                                                      120.84

!   Total N balance                              18907.05            18907.05
!   Balance                                                            -0.002

!===============================================================================

*DSSAT Cropping System Model Ver. 4.7.5.008 -release  JAN 07, 2021 20:33:40

*RUN  58        : ERiMA DCC1                MZCER047 ETMZbako    1
 MODEL          : MZCER047 - Maize
 EXPERIMENT     : ETMZbako SN MELKSSAL
 DATA PATH      : C:\IRI\Python_Dash\ET_DSS_hist\TEST\
 TREATMENT  1   : ERiMA DCC1                MZCER047
  


!                                        INITIAL Year/Doy      FINAL Year/Doy
!                                                2003/165            2003/309
!SOIL N BALANCE                                 -----------kg N/ha-----------

!   Soil Humus N                                 18903.17            18782.15
!   Soil Litter N                                    0.00                2.05
!   N in Surface Residue                             0.00                0.00

!   Added to / Removed from Soil:
!   N in Harvest Residues from Previous Crop         0.00
!   N from Organic Applications                      0.00
!   N from senesced plant matter                     2.26
!   N immobilized                                    0.00
!   N mineralized                                                      121.23

!   Total N balance                              18905.44            18905.44
!   Balance                                                             0.000

!===============================================================================

*DSSAT Cropping System Model Ver. 4.7.5.008 -release  JAN 07, 2021 20:33:40

*RUN  59        : ERiMA DCC1                MZCER047 ETMZbako    1
 MODEL          : MZCER047 - Maize
 EXPERIMENT     : ETMZbako SN MELKSSAL
 DATA PATH      : C:\IRI\Python_Dash\ET_DSS_hist\TEST\
 TREATMENT  1   : ERiMA DCC1                MZCER047
  


!                                        INITIAL Year/Doy      FINAL Year/Doy
!                                                2004/165            2004/307
!SOIL N BALANCE                                 -----------kg N/ha-----------

!   Soil Humus N                                 18903.17            18772.54
!   Soil Litter N                                    0.00                2.27
!   N in Surface Residue                             0.00                0.00

!   Added to / Removed from Soil:
!   N in Harvest Residues from Previous Crop         0.00
!   N from Organic Applications                      0.00
!   N from senesced plant matter                     3.05
!   N immobilized                                    0.00
!   N mineralized                                                      131.41

!   Total N balance                              18906.22            18906.22
!   Balance                                                            -0.002

!===============================================================================

*DSSAT Cropping System Model Ver. 4.7.5.008 -release  JAN 07, 2021 20:33:40

*RUN  60        : ERiMA DCC1                MZCER047 ETMZbako    1
 MODEL          : MZCER047 - Maize
 EXPERIMENT     : ETMZbako SN MELKSSAL
 DATA PATH      : C:\IRI\Python_Dash\ET_DSS_hist\TEST\
 TREATMENT  1   : ERiMA DCC1                MZCER047
  


!                                        INITIAL Year/Doy      FINAL Year/Doy
!                                                2005/165            2005/297
!SOIL N BALANCE                                 -----------kg N/ha-----------

!   Soil Humus N                                 18903.17            18772.04
!   Soil Litter N                                    0.00                2.04
!   N in Surface Residue                             0.00                0.00

!   Added to / Removed from Soil:
!   N in Harvest Residues from Previous Crop         0.00
!   N from Organic Applications                      0.00
!   N from senesced plant matter                     2.63
!   N immobilized                                    0.00
!   N mineralized                                                      131.72

!   Total N balance                              18905.80            18905.80
!   Balance                                                             0.002

!===============================================================================

*DSSAT Cropping System Model Ver. 4.7.5.008 -release  JAN 07, 2021 20:33:40

*RUN  61        : ERiMA DCC1                MZCER047 ETMZbako    1
 MODEL          : MZCER047 - Maize
 EXPERIMENT     : ETMZbako SN MELKSSAL
 DATA PATH      : C:\IRI\Python_Dash\ET_DSS_hist\TEST\
 TREATMENT  1   : ERiMA DCC1                MZCER047
  


!                                        INITIAL Year/Doy      FINAL Year/Doy
!                                                2006/165            2006/303
!SOIL N BALANCE                                 -----------kg N/ha-----------

!   Soil Humus N                                 18903.17            18770.98
!   Soil Litter N                                    0.00                2.54
!   N in Surface Residue                             0.00                0.00

!   Added to / Removed from Soil:
!   N in Harvest Residues from Previous Crop         0.00
!   N from Organic Applications                      0.00
!   N from senesced plant matter                     3.16
!   N immobilized                                    0.00
!   N mineralized                                                      132.82

!   Total N balance                              18906.33            18906.33
!   Balance                                                             0.002

!===============================================================================

*DSSAT Cropping System Model Ver. 4.7.5.008 -release  JAN 07, 2021 20:33:40

*RUN  62        : ERiMA DCC1                MZCER047 ETMZbako    1
 MODEL          : MZCER047 - Maize
 EXPERIMENT     : ETMZbako SN MELKSSAL
 DATA PATH      : C:\IRI\Python_Dash\ET_DSS_hist\TEST\
 TREATMENT  1   : ERiMA DCC1                MZCER047
  


!                                        INITIAL Year/Doy      FINAL Year/Doy
!                                                2007/165            2007/310
!SOIL N BALANCE                                 -----------kg N/ha-----------

!   Soil Humus N                                 18903.17            18771.43
!   Soil Litter N                                    0.00                2.48
!   N in Surface Residue                             0.00                0.00

!   Added to / Removed from Soil:
!   N in Harvest Residues from Previous Crop         0.00
!   N from Organic Applications                      0.00
!   N from senesced plant matter                     3.49
!   N immobilized                                    0.00
!   N mineralized                                                      132.76

!   Total N balance                              18906.66            18906.66
!   Balance                                                             0.000

!===============================================================================

*DSSAT Cropping System Model Ver. 4.7.5.008 -release  JAN 07, 2021 20:33:40

*RUN  63        : ERiMA DCC1                MZCER047 ETMZbako    1
 MODEL          : MZCER047 - Maize
 EXPERIMENT     : ETMZbako SN MELKSSAL
 DATA PATH      : C:\IRI\Python_Dash\ET_DSS_hist\TEST\
 TREATMENT  1   : ERiMA DCC1                MZCER047
  


!                                        INITIAL Year/Doy      FINAL Year/Doy
!                                                2008/165            2008/305
!SOIL N BALANCE                                 -----------kg N/ha-----------

!   Soil Humus N                                 18903.17            18772.42
!   Soil Litter N                                    0.00                2.36
!   N in Surface Residue                             0.00                0.00

!   Added to / Removed from Soil:
!   N in Harvest Residues from Previous Crop         0.00
!   N from Organic Applications                      0.00
!   N from senesced plant matter                     3.34
!   N immobilized                                    0.00
!   N mineralized                                                      131.74

!   Total N balance                              18906.52            18906.52
!   Balance                                                             0.000

!===============================================================================

*DSSAT Cropping System Model Ver. 4.7.5.008 -release  JAN 07, 2021 20:33:40

*RUN  64        : ERiMA DCC1                MZCER047 ETMZbako    1
 MODEL          : MZCER047 - Maize
 EXPERIMENT     : ETMZbako SN MELKSSAL
 DATA PATH      : C:\IRI\Python_Dash\ET_DSS_hist\TEST\
 TREATMENT  1   : ERiMA DCC1                MZCER047
  


!                                        INITIAL Year/Doy      FINAL Year/Doy
!                                                2009/165            2009/318
!SOIL N BALANCE                                 -----------kg N/ha-----------

!   Soil Humus N                                 18903.17            18759.27
!   Soil Litter N                                    0.00                2.91
!   N in Surface Residue                             0.00                0.00

!   Added to / Removed from Soil:
!   N in Harvest Residues from Previous Crop         0.00
!   N from Organic Applications                      0.00
!   N from senesced plant matter                     4.20
!   N immobilized                                    0.00
!   N mineralized                                                      145.19

!   Total N balance                              18907.37            18907.37
!   Balance                                                             0.002

!===============================================================================

*DSSAT Cropping System Model Ver. 4.7.5.008 -release  JAN 07, 2021 20:33:40

*RUN  65        : ERiMA DCC1                MZCER047 ETMZbako    1
 MODEL          : MZCER047 - Maize
 EXPERIMENT     : ETMZbako SN MELKSSAL
 DATA PATH      : C:\IRI\Python_Dash\ET_DSS_hist\TEST\
 TREATMENT  1   : ERiMA DCC1                MZCER047
  


!                                        INITIAL Year/Doy      FINAL Year/Doy
!                                                2010/165            2010/307
!SOIL N BALANCE                                 -----------kg N/ha-----------

!   Soil Humus N                                 18903.17            18771.66
!   Soil Litter N                                    0.00                3.09
!   N in Surface Residue                             0.00                0.00

!   Added to / Removed from Soil:
!   N in Harvest Residues from Previous Crop         0.00
!   N from Organic Applications                      0.00
!   N from senesced plant matter                     4.23
!   N immobilized                                    0.00
!   N mineralized                                                      132.65

!   Total N balance                              18907.40            18907.40
!   Balance                                                             0.000

!===============================================================================

*DSSAT Cropping System Model Ver. 4.7.5.008 -release  JAN 07, 2021 20:33:40

*RUN  66        : ERiMA DCC1                MZCER047 ETMZbako    1
 MODEL          : MZCER047 - Maize
 EXPERIMENT     : ETMZbako SN MELKSSAL
 DATA PATH      : C:\IRI\Python_Dash\ET_DSS_hist\TEST\
 TREATMENT  1   : ERiMA DCC1                MZCER047
  


!                                        INITIAL Year/Doy      FINAL Year/Doy
!                                                2011/165            2011/306
!SOIL N BALANCE                                 -----------kg N/ha-----------

!   Soil Humus N                                 18903.17            18772.47
!   Soil Litter N                                    0.00                2.34
!   N in Surface Residue                             0.00                0.00

!   Added to / Removed from Soil:
!   N in Harvest Residues from Previous Crop         0.00
!   N from Organic Applications                      0.00
!   N from senesced plant matter                     3.16
!   N immobilized                                    0.00
!   N mineralized                                                      131.53

!   Total N balance                              18906.34            18906.34
!   Balance                                                             0.000

!===============================================================================

*DSSAT Cropping System Model Ver. 4.7.5.008 -release  JAN 07, 2021 20:33:40

*RUN  67        : ERiMA DCC1                MZCER047 ETMZbako    1
 MODEL          : MZCER047 - Maize
 EXPERIMENT     : ETMZbako SN MELKSSAL
 DATA PATH      : C:\IRI\Python_Dash\ET_DSS_hist\TEST\
 TREATMENT  1   : ERiMA DCC1                MZCER047
  


!                                        INITIAL Year/Doy      FINAL Year/Doy
!                                                2012/165            2012/302
!SOIL N BALANCE                                 -----------kg N/ha-----------

!   Soil Humus N                                 18903.17            18774.60
!   Soil Litter N                                    0.00                2.50
!   N in Surface Residue                             0.00                0.00

!   Added to / Removed from Soil:
!   N in Harvest Residues from Previous Crop         0.00
!   N from Organic Applications                      0.00
!   N from senesced plant matter                     3.35
!   N immobilized                                    0.00
!   N mineralized                                                      129.42

!   Total N balance                              18906.53            18906.52
!   Balance                                                            -0.004

!===============================================================================

*DSSAT Cropping System Model Ver. 4.7.5.008 -release  JAN 07, 2021 20:33:40

*RUN  68        : ERiMA DCC1                MZCER047 ETMZbako    1
 MODEL          : MZCER047 - Maize
 EXPERIMENT     : ETMZbako SN MELKSSAL
 DATA PATH      : C:\IRI\Python_Dash\ET_DSS_hist\TEST\
 TREATMENT  1   : ERiMA DCC1                MZCER047
  


!                                        INITIAL Year/Doy      FINAL Year/Doy
!                                                2013/165            2013/311
!SOIL N BALANCE                                 -----------kg N/ha-----------

!   Soil Humus N                                 18903.17            18767.30
!   Soil Litter N                                    0.00                2.65
!   N in Surface Residue                             0.00                0.00

!   Added to / Removed from Soil:
!   N in Harvest Residues from Previous Crop         0.00
!   N from Organic Applications                      0.00
!   N from senesced plant matter                     3.90
!   N immobilized                                    0.00
!   N mineralized                                                      137.12

!   Total N balance                              18907.08            18907.08
!   Balance                                                             0.000

!===============================================================================

*DSSAT Cropping System Model Ver. 4.7.5.008 -release  JAN 07, 2021 20:33:40

*RUN  69        : ERiMA DCC1                MZCER047 ETMZbako    1
 MODEL          : MZCER047 - Maize
 EXPERIMENT     : ETMZbako SN MELKSSAL
 DATA PATH      : C:\IRI\Python_Dash\ET_DSS_hist\TEST\
 TREATMENT  1   : ERiMA DCC1                MZCER047
  


!                                        INITIAL Year/Doy      FINAL Year/Doy
!                                                2014/165            2014/305
!SOIL N BALANCE                                 -----------kg N/ha-----------

!   Soil Humus N                                 18903.17            18770.35
!   Soil Litter N                                    0.00                2.13
!   N in Surface Residue                             0.00                0.00

!   Added to / Removed from Soil:
!   N in Harvest Residues from Previous Crop         0.00
!   N from Organic Applications                      0.00
!   N from senesced plant matter                     3.09
!   N immobilized                                    0.00
!   N mineralized                                                      133.78

!   Total N balance                              18906.26            18906.26
!   Balance                                                             0.000

!===============================================================================

*DSSAT Cropping System Model Ver. 4.7.5.008 -release  JAN 07, 2021 20:33:40

*RUN  70        : ERiMA DCC1                MZCER047 ETMZbako    1
 MODEL          : MZCER047 - Maize
 EXPERIMENT     : ETMZbako SN MELKSSAL
 DATA PATH      : C:\IRI\Python_Dash\ET_DSS_hist\TEST\
 TREATMENT  1   : ERiMA DCC1                MZCER047
  


!                                        INITIAL Year/Doy      FINAL Year/Doy
!                                                2015/165            2015/305
!SOIL N BALANCE                                 -----------kg N/ha-----------

!   Soil Humus N                                 18903.17            18770.67
!   Soil Litter N                                    0.00                2.43
!   N in Surface Residue                             0.00                0.00

!   Added to / Removed from Soil:
!   N in Harvest Residues from Previous Crop         0.00
!   N from Organic Applications                      0.00
!   N from senesced plant matter                     3.27
!   N immobilized                                    0.00
!   N mineralized                                                      133.35

!   Total N balance                              18906.44            18906.45
!   Balance                                                             0.002
