*Soil Inorganic Nitrogen daily output file

*DSSAT Cropping System Model Ver. 4.7.5.008 -release  JAN 07, 2021 20:14:37

*RUN   1        : ERiMA DCC1                MZCER047 ETMZmelk    1
 MODEL          : MZCER047 - Maize
 EXPERIMENT     : ETMZmelk SN MELKSSAL
 DATA PATH      : C:\IRI\Python_Dash\ET_DSS_hist\TEST\
 TREATMENT  1   : ERiMA DCC1                MZCER047
  
!                                                                                                                              NO3 (ppm) at soil dep. (cm):                                                    NH4 (ppm) at soil dep. (cm):                                                    Total Inorganic N @dep(ppm):
!                                                                                                                               0-5    5-15   15-20   20-35   35-50   50-65   65-81   81-97  97-118 118-200     0-5    5-15   15-20   20-35   35-50   50-65   65-81   81-97  97-118 118-200     0-5    5-15   15-20   20-35   35-50   50-65   65-81   81-97  97-118 118-200
@YEAR DOY   DAS  NAPC  NI#M    NIAD    NITD    NHTD    NMNC    NITC    NDNC    NIMC    AMLC   NNMNC    NUCM    NLCC    TDFC    NI1D    NI2D    NI3D    NI4D    NI5D    NI6D    NI7D    NI8D    NI9D    NI10    NH1D    NH2D    NH3D    NH4D    NH5D    NH6D    NH7D    NH8D    NH9D    NH10    NT1D    NT2D    NT3D    NT4D    NT5D    NT6D    NT7D    NT8D    NT9D    NT10    
 1981 164     0     0     0    42.0    39.6     2.4    0.00    0.00    0.00    0.00    0.00    0.00    0.00    0.00    0.00   15.00    15.0    15.0    2.00    0.00    0.00    0.00    0.00    0.00    0.00    0.10    0.10    0.10    0.10    0.10    0.10    0.10    0.10    0.10    0.10   15.10   15.10   15.10    2.10    0.10    0.10    0.10    0.10    0.10    0.10
 1981 165     1     0     0    43.1    40.9     2.2    1.10    1.32    0.00    0.00    0.00    1.10    0.00    0.00    0.00   15.07    15.1    15.1    2.06    0.06    0.06    0.06    0.05    0.05    0.05    0.12    0.12    0.12    0.11    0.10    0.10    0.09    0.09    0.08    0.08   15.19   15.19   15.19    2.17    0.16    0.16    0.15    0.15    0.13    0.13
 1981 166     2    30     1    60.7    42.1    18.6    2.19    2.53    0.00    0.00    0.00    2.19    0.00    0.00    0.00   15.38    15.1    15.1    2.12    0.12    0.12    0.11    0.10    0.10    0.09   27.57    0.13    0.13    0.11    0.10    0.10    0.09    0.09    0.07    0.07   42.96   15.21   15.18    2.23    0.22    0.22    0.19    0.19    0.17    0.17
 1981 167     3    30     1    68.3    53.8    14.5    3.28   14.32    0.00    0.00    0.00    3.28    0.00    0.00    0.00   33.35    15.1    15.0    2.19    0.18    0.17    0.15    0.15    0.13    0.13   20.82    0.14    0.14    0.11    0.10    0.10    0.08    0.09    0.07    0.07   54.18   15.23   15.18    2.29    0.28    0.28    0.24    0.24    0.20    0.20
 1981 168     4    30     1    72.3    63.1     9.3    4.37   23.59    0.00    0.00    0.00    4.37    0.00    0.00    0.00   47.17    15.1    15.0    2.25    0.24    0.23    0.20    0.20    0.17    0.16   12.25    0.14    0.14    0.11    0.10    0.10    0.08    0.08    0.07    0.07   59.42   15.24   15.18    2.36    0.34    0.34    0.28    0.28    0.23    0.23
 1981 169     5    30     1    74.9    68.8     6.0    5.45   29.40    0.00    0.00    0.00    5.45    0.00    0.00    0.00   55.30    15.1    15.0    2.31    0.30    0.29    0.25    0.24    0.20    0.20    6.90    0.14    0.14    0.11    0.10    0.10    0.08    0.08    0.06    0.07   62.20   15.26   15.17    2.42    0.40    0.39    0.33    0.33    0.27    0.26
 1981 170     6    30     1    76.8    72.6     4.1    6.55   33.23    0.00    0.00    0.00    6.55    0.00    0.00    0.00   60.12    15.1    15.0    2.38    0.36    0.35    0.29    0.29    0.24    0.23    3.75    0.14    0.14    0.11    0.10    0.10    0.08    0.08    0.06    0.06   63.87   15.28   15.17    2.49    0.46    0.45    0.38    0.37    0.30    0.30
 1981 171     7    30     1    78.3    75.2     3.2    7.65   35.78    0.00    0.00    0.00    7.65    0.00    0.00    0.00   62.84    15.2    15.0    2.44    0.42    0.41    0.34    0.33    0.27    0.26    2.13    0.14    0.14    0.11    0.10    0.10    0.08    0.08    0.06    0.06   64.97   15.30   15.17    2.55    0.52    0.51    0.42    0.42    0.33    0.33
 1981 172     8    30     1    79.7    77.0     2.7    8.75   37.62    0.00    0.00    0.00    8.75    0.00    0.00    0.00   64.40    15.2    15.0    2.50    0.48    0.47    0.39    0.38    0.30    0.30    1.39    0.14    0.14    0.11    0.10    0.10    0.08    0.08    0.06    0.06   65.78   15.32   15.17    2.61    0.58    0.57    0.47    0.46    0.37    0.36
 1981 173     9    30     1    81.0    78.5     2.5    9.82   39.09    0.00    0.00    0.00    9.82    0.00    0.00    0.00   65.40    15.2    15.0    2.56    0.54    0.53    0.43    0.42    0.34    0.33    1.02    0.14    0.14    0.11    0.10    0.10    0.08    0.08    0.06    0.06   66.42   15.33   15.16    2.67    0.64    0.63    0.51    0.51    0.40    0.39
 1981 174    10    30     1    82.2    79.8     2.4   10.90   40.42    0.00    0.00    0.00   10.90    0.00    0.00    0.00   66.17    15.2    15.0    2.63    0.60    0.58    0.48    0.47    0.37    0.36    0.78    0.14    0.14    0.11    0.10    0.10    0.08    0.08    0.06    0.06   66.95   15.35   15.16    2.74    0.70    0.69    0.56    0.55    0.43    0.42
 1981 175    11    30     1    83.3    81.0     2.3   11.97   41.66    0.00    0.00    0.00   11.97    0.00    0.00    0.00   66.78    15.2    15.0    2.69    0.66    0.64    0.52    0.51    0.40    0.39    0.64    0.14    0.14    0.11    0.10    0.10    0.08    0.08    0.06    0.06   67.42   15.36   15.16    2.80    0.76    0.74    0.60    0.59    0.47    0.46
 1981 176    12    30     1    84.6    82.2     2.3   13.03   42.90    0.00    0.00    0.00   13.03    0.00    0.00    0.00   61.30    18.3    15.0    2.75    0.71    0.70    0.56    0.55    0.43    0.42    0.73    0.14    0.14    0.11    0.10    0.10    0.08    0.08    0.06    0.06   62.04   18.43   15.15    2.86    0.82    0.80    0.65    0.64    0.50    0.49
 1981 177    13    30     1    85.8    83.5     2.2   14.10   44.21    0.00    0.00    0.00   14.10    0.00    0.00    0.00   62.05    18.3    15.0    2.81    0.77    0.76    0.61    0.60    0.47    0.46    0.51    0.16    0.14    0.11    0.10    0.10    0.08    0.08    0.06    0.06   62.55   18.44   15.15    2.92    0.87    0.86    0.69    0.68    0.53    0.52
 1981 178    14    30     1    86.9    84.8     2.1   15.19   45.46    0.00    0.00    0.00   15.19    0.00    0.00    0.00   62.66    18.3    15.0    2.87    0.83    0.81    0.66    0.64    0.50    0.49    0.34    0.15    0.14    0.11    0.10    0.10    0.08    0.08    0.06    0.06   63.00   18.44   15.15    2.98    0.93    0.92    0.74    0.73    0.56    0.55
 1981 179    15    30     1    87.6    85.6     2.1   16.25   46.59    0.00    0.00    0.00   16.25    0.33    0.00    0.00   62.81    18.2    15.0    2.93    0.89    0.87    0.70    0.69    0.53    0.52    0.25    0.15    0.14    0.11    0.10    0.10    0.08    0.08    0.06    0.06   63.05   18.35   15.11    3.04    0.99    0.97    0.78    0.77    0.60    0.58
 1981 180    16    30     1    88.3    86.3     2.0   17.26   47.66    0.00    0.00    0.00   17.26    0.68    0.00    0.00   61.28    18.9    14.9    2.99    0.94    0.93    0.74    0.73    0.56    0.55    0.19    0.13    0.13    0.11    0.10    0.10    0.08    0.09    0.06    0.07   61.47   19.04   15.05    3.10    1.05    1.03    0.83    0.81    0.63    0.62
 1981 181    17    30     1    88.8    86.8     2.0   18.29   48.72    0.00    0.00    0.00   18.29    1.26    0.00    0.00   61.11    18.7    14.8    3.05    1.00    0.98    0.79    0.77    0.60    0.58    0.16    0.13    0.13    0.11    0.10    0.10    0.08    0.09    0.06    0.07   61.27   18.86   14.96    3.16    1.10    1.09    0.87    0.86    0.66    0.65
 1981 182    18    30     1    89.5    87.5     2.0   19.30   49.75    0.00    0.00    0.00   19.30    1.52    0.00    0.00   61.24    18.6    14.8    3.10    1.06    1.04    0.83    0.82    0.63    0.61    0.15    0.12    0.12    0.11    0.10    0.10    0.08    0.09    0.06    0.07   61.39   18.76   14.90    3.22    1.16    1.14    0.92    0.90    0.69    0.68
 1981 183    19    30     1    89.9    87.9     2.0   20.28   50.73    0.00    0.00    0.00   20.28    2.12    0.00    0.00   61.10    18.4    14.6    3.16    1.11    1.09    0.87    0.86    0.66    0.64    0.14    0.12    0.12    0.11    0.11    0.11    0.09    0.09    0.07    0.07   61.24   18.55   14.77    3.27    1.22    1.20    0.96    0.94    0.72    0.71
 1981 184    20    30     1    90.1    88.1     2.0   21.24   51.71    0.00    0.00    0.00   21.24    2.87    0.00    0.00   56.22    20.5    14.4    3.21    1.17    1.14    0.92    0.90    0.69    0.67    0.13    0.11    0.12    0.11    0.11    0.11    0.09    0.09    0.07    0.07   56.35   20.61   14.56    3.32    1.27    1.25    1.00    0.98    0.75    0.74
 1981 185    21    30     1    90.5    88.5     2.0   22.22   52.68    0.00    0.00    0.00   22.22    3.41    0.00    0.00   48.56    24.1    14.3    3.27    1.22    1.20    0.96    0.94    0.72    0.70    0.14    0.11    0.12    0.11    0.11    0.11    0.09    0.09    0.07    0.07   48.70   24.19   14.44    3.38    1.33    1.30    1.04    1.03    0.79    0.77
 1981 186    22    30     1    91.3    89.3     2.0   23.18   53.63    0.00    0.00    0.00   23.18    3.64    0.00    0.00   54.24    22.8    11.9    3.10    1.26    1.23    0.99    0.98    0.75    0.73    0.14    0.13    0.11    0.11    0.11    0.11    0.09    0.09    0.07    0.07   54.38   22.95   11.99    3.21    1.37    1.34    1.08    1.06    0.81    0.80
 1981 187    23    30     1    91.1    89.1     2.0   24.12   54.56    0.00    0.00    0.00   24.12    4.73    0.00    0.00   59.26    20.8    10.0    2.96    1.30    1.26    1.03    1.01    0.77    0.76    0.14    0.13    0.11    0.11    0.11    0.11    0.09    0.09    0.07    0.07   59.41   20.98   10.09    3.07    1.41    1.37    1.11    1.10    0.84    0.83
 1981 188    24    30     1    91.2    89.2     2.0   25.08   55.54    0.00    0.00    0.00   25.08    5.59    0.00    0.00   58.92    20.5     9.9    3.01    1.36    1.32    1.07    1.05    0.80    0.79    0.14    0.12    0.10    0.10    0.11    0.11    0.09    0.09    0.07    0.07   59.06   20.64    9.98    3.11    1.46    1.43    1.16    1.14    0.87    0.86
 1981 189    25    30     1    90.5    88.6     1.9   26.05   56.55    0.00    0.00    0.00   26.05    7.24    0.00    0.00   58.14    19.8     9.6    3.04    1.42    1.38    1.11    1.10    0.84    0.82    0.13    0.11    0.10    0.10    0.11    0.11    0.09    0.09    0.07    0.07   58.26   19.95    9.72    3.14    1.52    1.48    1.20    1.18    0.90    0.89
 1981 190    26    30     1    88.5    86.6     1.9   27.00   57.53    0.00    0.00    0.00   27.00   10.17    0.00    0.00   57.06    18.5     9.0    3.01    1.47    1.43    1.16    1.14    0.87    0.85    0.11    0.10    0.09    0.10    0.11    0.11    0.09    0.09    0.07    0.07   57.17   18.57    9.14    3.11    1.58    1.54    1.24    1.23    0.93    0.92
 1981 191    27    30     1    88.7    86.8     1.9   27.92   58.46    0.00    0.00    0.00   27.92   10.95    0.00    0.00   41.72    25.8     8.8    3.02    1.53    1.48    1.20    1.18    0.90    0.88    0.10    0.10    0.09    0.10    0.11    0.11    0.09    0.09    0.07    0.07   41.81   25.87    8.92    3.12    1.63    1.59    1.29    1.27    0.96    0.95
 1981 192    28    30     1    88.5    86.6     1.9   28.86   59.36    0.00    0.00    0.00   28.86   12.06    0.00    0.00   24.42    28.3    18.2    3.49    1.58    1.54    1.24    1.22    0.93    0.91    0.13    0.12    0.09    0.10    0.11    0.11    0.09    0.09    0.07    0.07   24.56   28.39   18.31    3.59    1.68    1.64    1.33    1.31    1.00    0.98
 1981 193    29    30     1    87.9    85.9     2.0   29.80   60.23    0.00    0.00    0.00   29.80   13.56    0.00    0.00   13.68    20.3    26.9    7.86    2.64    1.62    1.28    1.26    0.96    0.94    0.16    0.14    0.12    0.10    0.11    0.11    0.09    0.09    0.07    0.07   13.84   20.39   27.05    7.95    2.75    1.73    1.36    1.35    1.02    1.01
 1981 194    30    30     1    86.8    84.7     2.1   30.73   61.05    0.00    0.00    0.00   30.73   15.54    0.08    0.00   14.03    17.3    20.4    9.05    3.98    2.02    1.45    1.33    1.00    0.98    0.18    0.16    0.15    0.11    0.12    0.11    0.09    0.09    0.07    0.07   14.22   17.51   20.60    9.16    4.10    2.13    1.54    1.42    1.07    1.05
 1981 195    31    30     1    84.7    82.6     2.1   31.66   61.97    0.00    0.00    0.00   31.66   18.55    0.08    0.00   16.19    15.9    17.2    8.76    4.11    2.10    1.50    1.37    1.03    1.01    0.17    0.16    0.15    0.11    0.12    0.11    0.09    0.09    0.07    0.07   16.36   16.04   17.34    8.88    4.24    2.21    1.59    1.46    1.10    1.08
 1981 196    32    30     1    83.4    81.3     2.1   32.61   62.94    0.00    0.00    0.00   32.61   20.82    0.08    0.00   17.86    15.0    15.5    8.36    4.10    2.12    1.53    1.41    1.06    1.04    0.16    0.15    0.15    0.12    0.12    0.11    0.09    0.09    0.07    0.07   18.02   15.17   15.63    8.47    4.22    2.23    1.62    1.50    1.12    1.10
 1981 197    33    30     1    81.7    79.6     2.1   33.57   63.91    0.00    0.00    0.00   33.57   23.45    0.08    0.00   17.20    14.2    14.6    8.14    4.15    2.18    1.57    1.45    1.09    1.07    0.15    0.15    0.15    0.12    0.11    0.11    0.09    0.09    0.07    0.07   17.35   14.31   14.75    8.26    4.27    2.29    1.66    1.54    1.15    1.13
 1981 198    34    30     1    79.3    77.3     2.1   34.53   64.90    0.00    0.00    0.00   34.53   26.79    0.08    0.00   13.10    14.8    13.4    7.82    4.20    2.23    1.62    1.49    1.12    1.10    0.14    0.14    0.15    0.12    0.11    0.11    0.09    0.09    0.07    0.07   13.24   14.90   13.57    7.94    4.31    2.34    1.70    1.58    1.18    1.16
 1981 199    35    30     1    77.2    75.1     2.1   35.51   65.87    0.00    0.00    0.00   35.51   29.88    0.08    0.00    8.45    13.9    14.8    7.94    4.25    2.28    1.66    1.53    1.15    1.13    0.15    0.15    0.14    0.12    0.11    0.11    0.09    0.09    0.07    0.07    8.60   14.00   14.98    8.06    4.36    2.39    1.74    1.62    1.21    1.19
 1981 200    36    30     1    74.6    72.6     2.1   36.48   66.82    0.00    0.00    0.00   36.48   33.41    0.08    0.00    8.35    12.0    12.8    7.98    4.43    2.36    1.70    1.57    1.18    1.15    0.17    0.15    0.15    0.12    0.11    0.11    0.09    0.09    0.07    0.07    8.52   12.12   12.93    8.10    4.53    2.47    1.79    1.65    1.24    1.22
 1981 201    37    30     1    72.2    70.1     2.1   37.43   67.78    0.00    0.00    0.00   37.43   36.81    0.08    0.00    6.83    10.8    12.1    7.81    4.42    2.39    1.74    1.60    1.20    1.18    0.16    0.15    0.15    0.12    0.11    0.11    0.09    0.09    0.07    0.07    6.99   10.99   12.27    7.93    4.53    2.50    1.83    1.69    1.27    1.25
 1981 202    38    30     1    69.8    67.7     2.1   38.38   68.71    0.00    0.00    0.00   38.38   40.16    0.08    0.00    6.34     9.4    10.4    7.49    4.67    2.52    1.81    1.66    1.24    1.21    0.18    0.15    0.15    0.12    0.11    0.11    0.09    0.09    0.07    0.07    6.52    9.56   10.58    7.61    4.77    2.63    1.90    1.74    1.31    1.28
 1981 203    39    30     1    66.6    64.5     2.1   39.33   69.66    0.00    0.00    0.00   39.33   44.30    0.08    0.00    6.20     8.2     8.8    6.84    4.66    2.55    1.84    1.69    1.27    1.24    0.16    0.15    0.15    0.12    0.11    0.11    0.09    0.09    0.07    0.07    6.36    8.32    9.00    6.96    4.76    2.66    1.93    1.78    1.34    1.31
 1981 204    40    30     1    64.2    62.1     2.1   40.26   70.59    0.00    0.00    0.00   40.26   47.58    0.08    0.00    3.12     6.6     8.9    7.02    4.89    2.65    1.90    1.73    1.30    1.27    0.16    0.15    0.15    0.12    0.11    0.11    0.09    0.09    0.07    0.07    3.28    6.73    9.05    7.14    5.00    2.76    1.98    1.82    1.36    1.33
 1981 205    41    30     1    60.9    58.7     2.2   41.19   71.46    0.00    0.00    0.00   41.19   51.84    0.08    0.00    1.95     4.6     6.7    6.57    5.34    2.89    2.00    1.79    1.33    1.29    0.18    0.16    0.16    0.12    0.12    0.12    0.09    0.09    0.07    0.07    2.13    4.78    6.89    6.69    5.45    3.01    2.09    1.88    1.40    1.36
 1981 206    42    30     1    57.4    55.2     2.2   42.13   72.31    0.00    0.00    0.00   42.13   56.28    0.08    0.00    1.22     3.0     4.6    5.59    5.60    3.21    2.15    1.87    1.37    1.34    0.19    0.17    0.18    0.12    0.13    0.12    0.09    0.09    0.07    0.07    1.41    3.20    4.82    5.72    5.73    3.33    2.24    1.96    1.44    1.41
 1981 207    43    30     1    54.5    52.2     2.3   43.07   73.17    0.00    0.00    0.00   43.07   60.10    0.08    0.00    0.73     1.9     3.1    4.52    5.63    3.53    2.35    1.96    1.41    1.38    0.20    0.18    0.19    0.13    0.13    0.13    0.09    0.09    0.08    0.07    0.93    2.10    3.26    4.65    5.77    3.66    2.44    2.05    1.49    1.45
 1981 208    44    30     1    52.5    50.1     2.4   43.99   73.98    0.00    0.00    0.00   43.99   63.05    0.08    0.00    0.50     1.3     2.1    3.57    5.45    3.76    2.54    2.06    1.46    1.42    0.21    0.19    0.20    0.13    0.14    0.14    0.10    0.10    0.08    0.08    0.71    1.44    2.26    3.70    5.59    3.89    2.64    2.16    1.54    1.49
 1981 209    45    30     1    48.7    46.2     2.5   44.90   74.81    0.04    0.00    0.00   44.90   67.63    0.17    0.00    0.28     0.5     0.8    2.20    5.01    3.87    2.70    2.16    1.50    1.45    0.22    0.18    0.20    0.13    0.14    0.14    0.10    0.10    0.08    0.08    0.50    0.69    1.04    2.33    5.15    4.01    2.80    2.25    1.59    1.53
 1981 210    46    30     1    46.9    44.3     2.6   45.81   75.67    0.08    0.00    0.00   45.81   70.18    0.30    0.00    0.23     0.3     0.4    1.38    4.53    3.93    2.84    2.24    1.54    1.49    0.22    0.17    0.20    0.13    0.14    0.14    0.10    0.10    0.09    0.09    0.45    0.49    0.63    1.51    4.67    4.07    2.94    2.34    1.63    1.57
 1981 211    47    60     2    59.9    43.3    16.6   46.70   76.49    0.12    0.00    0.00   46.70   71.80    0.46    0.00    0.18     0.3     0.3    0.84    3.90    4.00    3.06    2.37    1.60    1.52   23.61    0.18    0.21    0.13    0.14    0.14    0.10    0.10    0.09    0.09   23.79    0.45    0.52    0.97    4.04    4.14    3.16    2.47    1.68    1.61
 1981 212    48    60     2    60.4    45.0    15.4   47.59   79.32    0.18    0.00    0.00   47.59   79.36    0.67    0.00    3.61     0.3     0.3    0.61    3.38    3.92    3.22    2.51    1.65    1.56   21.45    0.19    0.21    0.14    0.15    0.15    0.10    0.10    0.09    0.09   25.06    0.47    0.53    0.75    3.52    4.07    3.32    2.61    1.74    1.65
 1981 213    49    60     2    61.0    47.5    13.5   48.48   83.11    0.25    0.00    0.00   48.48   83.30    0.91    0.00    7.11     0.5     0.4    0.56    3.06    3.81    3.32    2.62    1.71    1.60   15.66    1.45    0.21    0.14    0.15    0.15    0.10    0.10    0.09    0.09   22.77    1.99    0.59    0.70    3.21    3.96    3.42    2.73    1.80    1.69
 1981 214    50    60     2    57.9    48.2     9.7   49.39   86.41    0.31    0.00    0.00   49.39   89.08    1.19    0.00    5.17     1.8     0.8    0.45    2.70    3.72    3.46    2.77    1.78    1.64    8.55    1.59    0.66    0.14    0.15    0.15    0.10    0.10    0.09    0.09   13.72    3.44    1.45    0.58    2.85    3.87    3.56    2.87    1.87    1.74
 1981 215    51    60     2    55.6    47.6     8.1   50.29   88.94    0.41    0.00    0.00   50.29   91.46    3.04    0.00    5.82     1.9     1.0    0.47    2.19    3.23    3.33    2.84    1.85    1.67    5.15    1.39    1.40    0.22    0.16    0.15    0.10    0.11    0.10    0.09   10.97    3.29    2.38    0.69    2.35    3.39    3.43    2.95    1.94    1.77
 1981 216    52    60     2    50.3    45.4     4.9   51.21   91.27    0.43    0.00    0.00   51.21   97.67    3.65    0.00    3.93     1.3     0.9    0.43    2.01    3.07    3.29    2.87    1.88    1.70    1.59    0.73    0.84    0.29    0.19    0.15    0.10    0.10    0.09    0.09    5.51    2.03    1.73    0.72    2.20    3.22    3.39    2.97    1.98    1.79
 1981 217    53    60     2    47.3    43.6     3.8   52.14   92.98    0.44    0.00    0.00   52.14  101.78    3.75    0.00    1.90     0.8     0.6    0.41    1.94    3.01    3.29    2.89    1.92    1.73    0.58    0.46    0.53    0.27    0.19    0.15    0.10    0.10    0.09    0.09    2.48    1.21    1.14    0.69    2.13    3.16    3.39    2.99    2.01    1.83
 1981 218    54    60     2    46.2    42.9     3.3   53.08   94.52    0.45    0.00    0.00   53.08  103.92    3.79    0.00    0.58     0.6     0.6    0.43    1.88    2.98    3.34    2.94    1.95    1.76    0.36    0.36    0.40    0.23    0.17    0.14    0.10    0.10    0.09    0.09    0.94    0.94    1.00    0.66    2.05    3.12    3.43    3.04    2.04    1.85
 1981 219    55    60     2    45.5    42.4     3.1   54.01   95.75    0.45    0.00    0.00   54.01  105.36    4.12    0.00    0.35     0.4     0.4    0.38    1.69    2.81    3.33    3.01    2.01    1.81    0.32    0.30    0.35    0.20    0.16    0.14    0.09    0.10    0.09    0.09    0.67    0.67    0.74    0.58    1.85    2.95    3.43    3.11    2.10    1.90
 1981 220    56    60     2    45.5    42.7     2.8   54.96   96.99    0.46    0.00    0.00   54.96  106.28    4.12    0.00    0.41     0.4     0.4    0.35    1.65    2.74    3.37    3.05    2.04    1.84    0.24    0.24    0.27    0.18    0.16    0.14    0.09    0.09    0.09    0.09    0.65    0.63    0.68    0.53    1.80    2.87    3.46    3.14    2.12    1.92
 1981 221    57    60     2    45.5    42.8     2.7   55.91   98.14    0.46    0.00    0.00   55.91  107.28    4.12    0.00    0.37     0.4     0.4    0.34    1.61    2.63    3.41    3.08    2.06    1.87    0.20    0.20    0.22    0.16    0.14    0.13    0.09    0.09    0.09    0.09    0.57    0.56    0.60    0.49    1.75    2.76    3.50    3.18    2.15    1.95
 1981 222    58    60     2    45.6    43.0     2.5   56.87   99.25    0.46    0.00    0.00   56.87  108.19    4.12    0.00    0.36     0.3     0.4    0.33    1.57    2.52    3.44    3.12    2.09    1.89    0.18    0.17    0.19    0.14    0.13    0.12    0.09    0.09    0.09    0.09    0.53    0.52    0.54    0.47    1.70    2.64    3.54    3.22    2.18    1.98
 1981 223    59    60     2    45.7    43.2     2.4   57.81  100.29    0.47    0.00    0.00   57.81  109.03    4.12    0.00    0.31     0.4     0.3    0.32    1.53    2.41    3.48    3.16    2.12    1.92    0.16    0.15    0.16    0.13    0.12    0.12    0.09    0.09    0.09    0.09    0.48    0.50    0.50    0.46    1.64    2.53    3.57    3.25    2.21    2.01
 1981 224    60    60     2    45.8    43.4     2.4   58.75  101.29    0.47    0.00    0.00   58.75  109.81    4.12    0.00    0.24     0.3     0.4    0.32    1.48    2.31    3.52    3.20    2.15    1.95    0.16    0.14    0.14    0.13    0.11    0.11    0.09    0.09    0.09    0.09    0.40    0.48    0.52    0.45    1.59    2.42    3.61    3.29    2.24    2.04
 1981 225    61    60     2    46.0    43.6     2.4   59.70  102.22    0.47    0.00    0.00   59.70  110.54    4.12    0.00    0.21     0.3     0.3    0.34    1.43    2.20    3.56    3.24    2.18    1.98    0.19    0.15    0.15    0.12    0.11    0.11    0.09    0.09    0.09    0.09    0.39    0.46    0.49    0.46    1.55    2.32    3.65    3.33    2.27    2.07
 1981 226    62    60     2    46.3    43.8     2.4   60.64  103.13    0.47    0.00    0.00   60.64  111.23    4.12    0.00    0.23     0.3     0.3    0.33    1.39    2.11    3.59    3.27    2.21    2.01    0.20    0.16    0.16    0.12    0.11    0.11    0.09    0.09    0.09    0.09    0.43    0.46    0.48    0.45    1.50    2.22    3.69    3.36    2.29    2.09
 1981 227    63    60     2    46.6    44.1     2.4   61.58  104.06    0.48    0.00    0.00   61.58  111.86    4.12    0.00    0.29     0.3     0.3    0.31    1.34    2.05    3.63    3.31    2.24    2.04    0.20    0.16    0.17    0.12    0.11    0.11    0.09    0.09    0.09    0.09    0.49    0.47    0.47    0.43    1.45    2.16    3.72    3.40    2.32    2.12
 1981 228    64    60     2    46.9    44.5     2.4   62.52  105.02    0.48    0.00    0.00   62.52  112.48    4.12    0.00    0.31     0.3     0.3    0.31    1.30    1.96    3.67    3.34    2.26    2.06    0.18    0.16    0.17    0.12    0.11    0.11    0.09    0.09    0.09    0.09    0.50    0.49    0.50    0.44    1.41    2.07    3.76    3.44    2.35    2.15
 1981 229    65    60     2    47.1    44.7     2.4   63.44  105.94    0.48    0.00    0.00   63.44  113.15    4.12    0.00    0.29     0.3     0.3    0.31    1.26    1.88    3.70    3.38    2.29    2.09    0.18    0.16    0.16    0.12    0.11    0.11    0.09    0.09    0.09    0.09    0.47    0.49    0.50    0.44    1.37    1.99    3.80    3.47    2.38    2.18
 1981 230    66    60     2    47.4    45.0     2.4   64.38  106.89    0.48    0.00    0.00   64.38  113.78    4.12    0.00    0.27     0.3     0.3    0.32    1.23    1.80    3.74    3.42    2.32    2.12    0.18    0.16    0.16    0.12    0.11    0.11    0.09    0.09    0.09    0.09    0.45    0.49    0.50    0.44    1.34    1.91    3.83    3.51    2.41    2.21
 1981 231    67    60     2    47.8    45.4     2.4   65.34  107.85    0.48    0.00    0.00   65.34  114.40    4.12    0.00    0.29     0.3     0.3    0.32    1.21    1.74    3.78    3.46    2.35    2.15    0.20    0.16    0.16    0.12    0.11    0.11    0.09    0.09    0.08    0.09    0.49    0.48    0.48    0.44    1.32    1.85    3.87    3.55    2.43    2.23
 1981 232    68    60     2    48.1    45.8     2.4   66.32  108.85    0.48    0.00    0.00   66.32  115.01    4.12    0.00    0.32     0.3     0.3    0.31    1.18    1.68    3.82    3.49    2.38    2.18    0.18    0.16    0.16    0.12    0.11    0.11    0.09    0.09    0.08    0.09    0.49    0.49    0.50    0.44    1.29    1.79    3.91    3.59    2.46    2.26
 1981 233    69    60     2    48.5    46.1     2.4   67.29  109.84    0.49    0.00    0.00   67.29  115.65    4.12    0.00    0.32     0.3     0.3    0.31    1.15    1.62    3.86    3.53    2.41    2.21    0.18    0.15    0.16    0.12    0.11    0.11    0.09    0.09    0.08    0.08    0.49    0.49    0.49    0.43    1.26    1.73    3.95    3.62    2.49    2.29
 1981 234    70    60     2    48.8    46.5     2.3   68.27  110.85    0.49    0.00    0.00   68.27  116.26    4.12    0.00    0.21     0.3     0.4    0.34    1.14    1.57    3.90    3.57    2.44    2.24    0.16    0.15    0.15    0.12    0.11    0.11    0.09    0.09    0.08    0.08    0.37    0.47    0.53    0.46    1.25    1.67    3.98    3.66    2.52    2.32
 1981 235    71    60     2    49.2    46.8     2.4   69.25  111.80    0.49    0.00    0.00   69.25  116.88    4.13    0.00    0.24     0.3     0.3    0.30    1.03    1.63    3.93    3.62    2.48    2.27    0.19    0.17    0.18    0.12    0.11    0.11    0.09    0.09    0.08    0.08    0.43    0.45    0.46    0.42    1.14    1.74    4.02    3.71    2.55    2.35
 1981 236    72    60     2    49.7    47.4     2.3   70.21  112.81    0.49    0.00    0.00   70.21  117.33    4.13    0.00    0.32     0.3     0.3    0.31    1.01    1.58    3.97    3.66    2.51    2.30    0.18    0.17    0.17    0.12    0.11    0.11    0.09    0.09    0.07    0.08    0.50    0.49    0.49    0.43    1.12    1.69    4.06    3.74    2.58    2.38
 1981 237    73    60     2    50.0    47.8     2.2   71.14  113.80    0.49    0.00    0.00   71.14  117.91    4.13    0.00    0.34     0.3     0.3    0.31    0.99    1.53    4.00    3.69    2.54    2.32    0.17    0.16    0.16    0.12    0.11    0.11    0.09    0.09    0.07    0.08    0.50    0.49    0.49    0.43    1.10    1.64    4.09    3.78    2.61    2.41
 1981 238    74    60     2    50.4    48.2     2.2   72.07  114.76    0.49    0.00    0.00   72.07  118.48    4.13    0.00    0.23     0.3     0.4    0.32    0.98    1.47    4.04    3.73    2.57    2.35    0.16    0.16    0.16    0.12    0.11    0.11    0.09    0.09    0.07    0.08    0.39    0.49    0.52    0.44    1.09    1.58    4.13    3.82    2.64    2.44
 1981 239    75    60     2    50.7    48.5     2.2   73.00  115.69    0.49    0.00    0.00   73.00  119.05    4.13    0.00    0.25     0.3     0.3    0.31    0.94    1.47    4.08    3.77    2.60    2.38    0.19    0.16    0.16    0.12    0.11    0.11    0.09    0.09    0.07    0.08    0.44    0.47    0.47    0.43    1.05    1.58    4.17    3.86    2.66    2.46
 1981 240    76    60     2    51.2    49.0     2.2   73.94  116.68    0.49    0.00    0.00   73.94  119.52    4.13    0.00    0.33     0.3     0.3    0.31    0.93    1.43    4.12    3.80    2.63    2.42    0.18    0.16    0.16    0.12    0.11    0.11    0.09    0.09    0.07    0.08    0.51    0.49    0.49    0.43    1.04    1.53    4.20    3.89    2.69    2.49
 1981 241    77    60     2    51.6    49.4     2.1   74.89  117.66    0.49    0.00    0.00   74.89  120.08    4.13    0.00    0.34     0.3     0.3    0.31    0.92    1.39    4.15    3.84    2.65    2.45    0.17    0.16    0.16    0.12    0.11    0.11    0.09    0.09    0.07    0.07    0.51    0.48    0.48    0.43    1.03    1.50    4.24    3.93    2.72    2.52
 1981 242    78    60     2    52.0    49.9     2.1   75.86  118.65    0.49    0.00    0.00   75.86  120.64    4.13    0.00    0.21     0.3     0.4    0.33    0.91    1.34    4.19    3.88    2.68    2.48    0.16    0.16    0.16    0.12    0.11    0.11    0.09    0.09    0.07    0.07    0.37    0.48    0.53    0.45    1.02    1.45    4.28    3.97    2.75    2.55
 1981 243    79    60     2    52.4    50.3     2.1   76.83  119.61    0.49    0.00    0.00   76.83  121.21    4.13    0.00    0.24     0.3     0.3    0.31    0.90    1.34    4.23    3.92    2.71    2.51    0.18    0.16    0.16    0.12    0.11    0.11    0.09    0.09    0.07    0.07    0.43    0.46    0.47    0.43    1.01    1.45    4.32    4.01    2.78    2.58
 1981 244    80    60     2    52.9    50.8     2.1   77.79  120.59    0.49    0.00    0.00   77.79  121.66    4.13    0.00    0.32     0.3     0.3    0.31    0.89    1.30    4.27    3.96    2.74    2.54    0.17    0.16    0.16    0.12    0.11    0.11    0.09    0.09    0.07    0.07    0.50    0.49    0.49    0.43    1.00    1.41    4.36    4.04    2.81    2.61
 1981 245    81    60     2    53.3    51.2     2.1   78.74  121.54    0.49    0.00    0.00   78.74  122.21    4.13    0.00    0.34     0.3     0.3    0.31    0.88    1.27    4.31    3.99    2.77    2.57    0.17    0.16    0.16    0.12    0.11    0.11    0.09    0.09    0.07    0.07    0.50    0.48    0.48    0.43    0.99    1.38    4.39    4.08    2.84    2.64
 1981 246    82    60     2    53.7    51.6     2.1   79.70  122.50    0.49    0.00    0.00   79.70  122.74    4.13    0.00    0.33     0.3     0.3    0.31    0.87    1.24    4.35    4.03    2.80    2.60    0.16    0.16    0.16    0.12    0.11    0.11    0.09    0.09    0.07    0.07    0.49    0.48    0.48    0.43    0.98    1.34    4.43    4.12    2.87    2.67
 1981 247    83    60     2    54.1    52.0     2.1   80.64  123.46    0.49    0.00    0.00   80.64  123.26    4.13    0.00    0.26     0.3     0.3    0.31    0.86    1.20    4.39    4.07    2.83    2.63    0.16    0.15    0.15    0.12    0.11    0.11    0.09    0.09    0.07    0.07    0.41    0.50    0.50    0.43    0.97    1.31    4.47    4.16    2.90    2.70
 1981 248    84    60     2    54.6    52.5     2.1   81.60  124.40    0.49    0.00    0.00   81.60  123.78    4.13    0.00    0.22     0.3     0.4    0.33    0.86    1.18    4.42    4.11    2.86    2.66    0.18    0.15    0.15    0.12    0.11    0.11    0.09    0.09    0.07    0.07    0.40    0.47    0.51    0.45    0.96    1.29    4.51    4.20    2.92    2.72
 1981 249    85    60     2    55.0    52.9     2.1   82.56  125.34    0.49    0.00    0.00   82.56  124.29    4.13    0.00    0.26     0.3     0.3    0.32    0.86    1.16    4.46    4.15    2.89    2.69    0.20    0.16    0.16    0.12    0.11    0.11    0.09    0.09    0.07    0.07    0.46    0.46    0.47    0.44    0.97    1.27    4.55    4.23    2.95    2.75
 1981 250    86    60     2    55.5    53.4     2.1   83.53  126.34    0.49    0.00    0.00   83.53  124.75    4.13    0.00    0.23     0.3     0.4    0.33    0.87    1.14    4.50    4.18    2.92    2.72    0.18    0.16    0.16    0.12    0.11    0.11    0.09    0.09    0.07    0.07    0.41    0.48    0.52    0.45    0.98    1.25    4.58    4.27    2.98    2.78
 1981 251    87    60     2    56.0    53.8     2.1   84.49  127.26    0.49    0.00    0.00   84.49  125.27    4.13    0.00    0.27     0.3     0.3    0.30    0.81    1.22    4.53    4.22    2.94    2.74    0.20    0.17    0.17    0.12    0.11    0.10    0.09    0.09    0.07    0.07    0.47    0.46    0.46    0.42    0.92    1.32    4.62    4.31    3.01    2.81
 1981 252    88    60     2    56.5    54.4     2.1   85.47  128.26    0.49    0.00    0.00   85.47  125.68    4.13    0.00    0.34     0.3     0.3    0.32    0.81    1.20    4.57    4.26    2.97    2.77    0.18    0.16    0.17    0.12    0.11    0.11    0.09    0.09    0.07    0.07    0.52    0.49    0.49    0.44    0.92    1.30    4.66    4.34    3.04    2.84
 1981 253    89    60     2    57.0    54.9     2.1   86.45  129.26    0.49    0.00    0.00   86.45  126.22    4.13    0.00    0.35     0.3     0.3    0.31    0.81    1.18    4.61    4.29    3.00    2.80    0.17    0.16    0.16    0.12    0.11    0.11    0.09    0.09    0.07    0.07    0.51    0.49    0.49    0.43    0.92    1.28    4.69    4.38    3.07    2.87
 1981 254    90    60     2    57.4    55.3     2.1   87.44  130.26    0.49    0.00    0.00   87.44  126.75    4.13    0.00    0.29     0.3     0.3    0.31    0.81    1.15    4.65    4.33    3.03    2.83    0.16    0.15    0.16    0.12    0.11    0.11    0.09    0.09    0.07    0.07    0.45    0.50    0.50    0.43    0.92    1.26    4.74    4.42    3.10    2.90
 1981 255    91    60     2    57.9    55.8     2.1   88.42  131.24    0.49    0.00    0.00   88.42  127.28    4.13    0.00    0.30     0.3     0.3    0.32    0.81    1.13    4.69    4.37    3.06    2.86    0.17    0.15    0.15    0.12    0.11    0.11    0.09    0.09    0.07    0.07    0.47    0.48    0.49    0.44    0.92    1.24    4.77    4.46    3.13    2.93
 1981 256    92    60     2    58.3    56.2     2.1   89.39  132.22    0.49    0.00    0.00   89.39  127.78    4.13    0.00    0.34     0.3     0.3    0.31    0.81    1.12    4.72    4.41    3.09    2.89    0.16    0.15    0.15    0.12    0.11    0.11    0.09    0.09    0.07    0.07    0.50    0.48    0.48    0.43    0.91    1.22    4.81    4.50    3.16    2.96
 1981 257    93    60     2    58.8    56.7     2.1   90.35  133.17    0.49    0.00    0.00   90.35  128.30    4.13    0.00    0.29     0.3     0.3    0.31    0.80    1.10    4.76    4.45    3.12    2.92    0.16    0.15    0.15    0.12    0.11    0.10    0.09    0.09    0.07    0.07    0.45    0.49    0.49    0.43    0.91    1.20    4.85    4.53    3.18    2.99
 1981 258    94    60     2    59.2    57.1     2.1   91.27  134.08    0.49    0.00    0.00   91.27  128.80    4.13    0.00    0.24     0.3     0.3    0.32    0.80    1.08    4.80    4.48    3.14    2.95    0.17    0.16    0.16    0.12    0.11    0.10    0.09    0.09    0.07    0.07    0.41    0.48    0.50    0.44    0.91    1.18    4.88    4.57    3.21    3.01
 1981 259    95    60     2    59.6    57.5     2.1   92.19  134.97    0.49    0.00    0.00   92.19  129.28    4.13    0.00    0.24     0.3     0.3    0.32    0.79    1.06    4.83    4.52    3.17    2.97    0.19    0.16    0.16    0.12    0.11    0.10    0.09    0.09    0.07    0.07    0.43    0.47    0.49    0.45    0.90    1.16    4.92    4.61    3.24    3.04
 1981 260    96    60     2    60.1    57.9     2.1   93.11  135.88    0.49    0.00    0.00   93.11  129.74    4.13    0.00    0.28     0.3     0.3    0.32    0.80    1.05    4.87    4.55    3.20    3.00    0.21    0.16    0.17    0.12    0.11    0.10    0.09    0.09    0.07    0.07    0.48    0.47    0.47    0.44    0.91    1.14    4.95    4.64    3.27    3.07
 1981 261    97    60     2    60.6    58.4     2.1   94.04  136.84    0.49    0.00    0.00   94.04  130.18    4.13    0.00    0.30     0.3     0.3    0.32    0.80    1.03    4.90    4.59    3.23    3.03    0.19    0.16    0.16    0.12    0.11    0.09    0.09    0.09    0.07    0.07    0.48    0.49    0.51    0.44    0.91    1.13    4.99    4.68    3.29    3.10
 1981 262    98    60     2    61.0    58.9     2.1   94.97  137.77    0.49    0.00    0.00   94.97  130.69    4.13    0.00    0.17     0.3     0.3    0.34    0.81    1.06    4.94    4.62    3.25    3.06    0.20    0.16    0.16    0.12    0.11    0.09    0.09    0.09    0.07    0.07    0.37    0.44    0.49    0.46    0.92    1.15    5.03    4.71    3.32    3.13
 1981 263    99    60     2    61.5    59.3     2.2   95.91  138.64    0.49    0.00    0.00   95.91  131.13    4.13    0.00    0.22     0.3     0.3    0.28    0.71    1.18    4.97    4.66    3.28    3.09    0.21    0.18    0.18    0.13    0.12    0.09    0.09    0.09    0.07    0.07    0.43    0.45    0.46    0.41    0.83    1.27    5.06    4.75    3.35    3.15
 1981 264   100    60     2    62.1    60.0     2.1   96.87  139.63    0.49    0.00    0.00   96.87  131.44    4.13    0.00    0.28     0.3     0.3    0.32    0.72    1.17    5.01    4.70    3.31    3.12    0.19    0.17    0.17    0.12    0.12    0.10    0.09    0.09    0.07    0.07    0.47    0.50    0.51    0.44    0.83    1.27    5.10    4.78    3.38    3.18
 1981 265   101    60     2    62.6    60.4     2.1   97.84  140.61    0.49    0.00    0.00   97.84  131.94    4.13    0.00    0.27     0.3     0.3    0.32    0.72    1.16    5.05    4.73    3.34    3.14    0.19    0.16    0.17    0.12    0.11    0.10    0.09    0.09    0.07    0.07    0.46    0.49    0.51    0.44    0.84    1.26    5.13    4.82    3.41    3.21
 1981 266   102    60     2    63.0    60.9     2.2   98.80  141.55    0.49    0.00    0.00   98.80  132.44    4.13    0.00    0.29     0.3     0.3    0.31    0.70    1.16    5.08    4.80    3.37    3.17    0.20    0.16    0.17    0.12    0.12    0.11    0.09    0.09    0.07    0.07    0.49    0.48    0.48    0.43    0.82    1.27    5.17    4.88    3.43    3.24
 1981 267   103    60     2    63.5    61.4     2.1   99.77  142.55    0.49    0.00    0.00   99.77  132.88    4.13    0.00    0.34     0.3     0.3    0.31    0.71    1.15    5.12    4.83    3.40    3.20    0.19    0.16    0.16    0.12    0.11    0.11    0.09    0.09    0.07    0.07    0.53    0.49    0.50    0.43    0.82    1.26    5.21    4.92    3.46    3.27
 1981 268   104    60     2    64.0    61.9     2.1  100.76  143.57    0.49    0.00    0.00  100.76  133.41    4.13    0.00    0.35     0.3     0.3    0.31    0.72    1.14    5.16    4.87    3.42    3.23    0.17    0.16    0.16    0.12    0.11    0.11    0.09    0.09    0.07    0.07    0.52    0.48    0.49    0.43    0.83    1.24    5.24    4.96    3.49    3.30
 1981 269   105    60     2    64.5    62.4     2.1  101.75  144.58    0.49    0.00    0.00  101.75  133.93    4.13    0.00    0.28     0.3     0.3    0.31    0.72    1.11    5.20    4.91    3.46    3.26    0.16    0.15    0.16    0.12    0.11    0.11    0.09    0.09    0.07    0.07    0.44    0.50    0.50    0.43    0.83    1.22    5.28    5.00    3.52    3.33
 1981 270   106    60     2    64.9    62.8     2.1  102.72  145.52    0.49    0.00    0.00  102.72  134.44    4.13    0.00    0.29     0.3     0.3    0.32    0.73    1.10    5.23    4.95    3.48    3.29    0.18    0.15    0.16    0.12    0.11    0.11    0.09    0.09    0.07    0.07    0.47    0.47    0.48    0.44    0.84    1.20    5.32    5.04    3.55    3.36
 1981 271   107    60     2    65.4    63.3     2.1  103.67  146.48    0.49    0.00    0.00  103.67  134.91    4.13    0.00    0.33     0.3     0.3    0.31    0.73    1.09    5.27    4.98    3.51    3.32    0.17    0.16    0.16    0.12    0.11    0.11    0.09    0.09    0.07    0.07    0.50    0.48    0.48    0.43    0.84    1.19    5.36    5.07    3.58    3.38
 1981 272   108    60     2    65.9    63.8     2.1  104.63  147.44    0.49    0.00    0.00  104.63  135.41    4.13    0.00    0.34     0.3     0.3    0.31    0.73    1.08    5.31    5.02    3.54    3.35    0.16    0.16    0.16    0.12    0.11    0.11    0.09    0.09    0.07    0.07    0.50    0.48    0.48    0.43    0.84    1.19    5.39    5.11    3.61    3.41
 1981 273   109    60     2    66.3    64.2     2.1  105.56  148.37    0.49    0.00    0.00  105.56  135.90    4.13    0.00    0.33     0.3     0.3    0.30    0.73    1.05    5.34    5.06    3.57    3.37    0.16    0.16    0.16    0.12    0.11    0.11    0.09    0.09    0.07    0.07    0.49    0.48    0.48    0.43    0.84    1.16    5.43    5.15    3.63    3.44
 1981 274   110    60     2    66.8    64.7     2.1  106.49  149.30    0.49    0.00    0.00  106.49  136.37    4.13    0.00    0.33     0.3     0.3    0.31    0.73    1.03    5.38    5.10    3.60    3.40    0.16    0.15    0.15    0.12    0.11    0.11    0.09    0.09    0.07    0.07    0.48    0.48    0.47    0.42    0.84    1.14    5.47    5.18    3.66    3.47
 1981 275   111    60     2    67.2    65.1     2.1  107.40  150.26    0.49    0.00    0.00  107.40  136.84    4.13    0.00    0.30     0.3     0.3    0.30    0.73    1.01    5.42    5.14    3.63    3.43    0.15    0.15    0.14    0.11    0.11    0.11    0.09    0.09    0.07    0.07    0.45    0.48    0.46    0.42    0.84    1.12    5.51    5.22    3.69    3.50
 1981 276   112    60     2    67.7    65.6     2.0  108.33  151.21    0.49    0.00    0.00  108.33  137.31    4.13    0.00    0.26     0.3     0.3    0.30    0.73    0.99    5.46    5.18    3.66    3.46    0.16    0.15    0.13    0.11    0.11    0.10    0.09    0.09    0.07    0.07    0.41    0.49    0.48    0.41    0.84    1.10    5.55    5.26    3.72    3.53
 1981 277   113    60     2    68.1    66.1     2.0  109.26  152.13    0.49    0.00    0.00  109.26  137.76    4.13    0.00    0.25     0.3     0.3    0.31    0.74    0.99    5.50    5.21    3.69    3.49    0.18    0.15    0.14    0.10    0.11    0.10    0.09    0.09    0.07    0.07    0.43    0.47    0.49    0.41    0.85    1.09    5.59    5.30    3.75    3.56
 1981 278   114    60     2    68.6    66.6     2.0  110.21  153.09    0.49    0.00    0.00  110.21  138.21    4.13    0.00    0.29     0.3     0.3    0.32    0.74    0.99    5.53    5.25    3.71    3.52    0.20    0.15    0.15    0.09    0.11    0.09    0.09    0.09    0.07    0.07    0.49    0.47    0.47    0.41    0.85    1.08    5.62    5.34    3.78    3.59
 1981 279   115    60     2    69.1    67.1     2.0  111.18  154.08    0.49    0.00    0.00  111.18  138.67    4.13    0.00    0.35     0.3     0.3    0.30    0.75    0.99    5.57    5.28    3.74    3.55    0.18    0.15    0.15    0.10    0.11    0.09    0.09    0.09    0.07    0.07    0.53    0.48    0.48    0.40    0.86    1.08    5.66    5.37    3.81    3.61
 1981 280   116    60     2    69.6    67.6     2.0  112.15  155.09    0.49    0.00    0.00  112.15  139.16    4.13    0.00    0.36     0.3     0.3    0.30    0.76    0.99    5.61    5.32    3.77    3.58    0.16    0.15    0.15    0.09    0.11    0.08    0.09    0.09    0.06    0.07    0.52    0.48    0.48    0.39    0.86    1.08    5.69    5.41    3.84    3.64
 1981 281   117    60     2    70.1    68.1     1.9  113.12  156.11    0.49    0.00    0.00  113.12  139.66    4.13    0.00    0.34     0.3     0.3    0.30    0.76    0.97    5.65    5.36    3.80    3.61    0.15    0.15    0.15    0.08    0.11    0.08    0.09    0.09    0.06    0.06    0.50    0.48    0.48    0.38    0.87    1.05    5.74    5.45    3.87    3.68
 1981 282   118    60     2    70.5    68.7     1.9  114.08  157.13    0.49    0.00    0.00  114.08  140.15    4.13    0.00    0.34     0.3     0.3    0.30    0.77    0.95    5.70    5.41    3.84    3.64    0.14    0.14    0.13    0.08    0.10    0.07    0.08    0.08    0.06    0.06    0.48    0.47    0.47    0.37    0.87    1.02    5.78    5.49    3.90    3.71
 1981 283   119    60     2    71.0    69.2     1.8  115.02  158.13    0.49    0.00    0.00  115.02  140.63    4.13    0.00    0.34     0.3     0.3    0.29    0.77    0.93    5.74    5.45    3.87    3.68    0.13    0.12    0.12    0.07    0.10    0.07    0.08    0.08    0.06    0.06    0.46    0.45    0.45    0.36    0.87    0.99    5.82    5.54    3.93    3.74
 1981 284   120    60     2    71.4    69.7     1.8  115.91  159.07    0.49    0.00    0.00  115.91  141.07    4.13    0.00    0.34     0.3     0.3    0.29    0.78    0.91    5.78    5.50    3.90    3.71    0.11    0.11    0.11    0.06    0.10    0.06    0.08    0.08    0.06    0.06    0.45    0.43    0.43    0.35    0.87    0.97    5.87    5.58    3.97    3.77
 1981 285   121    60     2    71.9    70.2     1.7  116.76  159.95    0.49    0.00    0.00  116.76  141.44    4.13    0.00    0.37     0.3     0.3    0.28    0.77    0.90    5.83    5.54    3.93    3.74    0.11    0.11    0.11    0.06    0.10    0.06    0.08    0.08    0.06    0.06    0.48    0.42    0.42    0.34    0.87    0.96    5.91    5.62    4.00    3.80
 1981 286   122    60     2    72.4    70.7     1.7  117.58  160.80    0.49    0.00    0.00  117.58  141.75    4.13    0.00    0.43     0.3     0.3    0.28    0.77    0.89    5.87    5.58    3.96    3.77    0.10    0.10    0.10    0.06    0.09    0.05    0.09    0.09    0.06    0.06    0.53    0.41    0.41    0.34    0.86    0.95    5.95    5.66    4.03    3.83
 1981 287   123    60     2    72.9    71.3     1.7  118.37  161.62    0.49    0.00    0.00  118.37  142.04    4.13    0.00    0.49     0.3     0.3    0.28    0.77    0.89    5.91    5.62    3.99    3.80    0.09    0.09    0.09    0.05    0.09    0.05    0.09    0.09    0.06    0.06    0.57    0.39    0.40    0.33    0.85    0.94    5.99    5.71    4.06    3.87
 1981 288   124    60     2    73.4    71.8     1.6  119.14  162.42    0.49    0.00    0.00  119.14  142.31    4.13    0.00    0.53     0.3     0.3    0.28    0.76    0.89    5.95    5.66    4.03    3.83    0.08    0.09    0.09    0.05    0.08    0.05    0.09    0.09    0.06    0.07    0.61    0.38    0.39    0.33    0.84    0.93    6.04    5.75    4.09    3.90
 1981 289   125    60     2    73.9    72.3     1.6  119.89  163.21    0.49    0.00    0.00  119.89  142.56    4.13    0.00    0.57     0.3     0.3    0.28    0.75    0.89    5.99    5.70    4.06    3.86    0.07    0.08    0.08    0.05    0.07    0.05    0.09    0.09    0.06    0.07    0.65    0.37    0.38    0.33    0.82    0.93    6.08    5.79    4.12    3.93
 1981 290   126    60     2    74.4    72.9     1.5  120.63  163.99    0.49    0.00    0.00  120.63  142.76    4.13    0.00    0.61     0.3     0.3    0.28    0.76    0.89    6.04    5.75    4.09    3.89    0.07    0.07    0.08    0.05    0.06    0.04    0.09    0.09    0.06    0.06    0.68    0.36    0.37    0.32    0.82    0.93    6.12    5.83    4.15    3.96
 1981 291   127    60     2    75.0    73.5     1.5  121.34  164.74    0.49    0.00    0.00  121.34  142.94    4.13    0.00    0.64     0.3     0.3    0.27    0.76    0.89    6.08    5.79    4.12    3.93    0.06    0.07    0.07    0.05    0.05    0.04    0.09    0.09    0.06    0.06    0.71    0.35    0.36    0.32    0.82    0.94    6.16    5.87    4.19    3.99
 1981 292   128    60     2    75.5    74.0     1.5  122.04  165.46    0.49    0.00    0.00  122.04  143.10    4.13    0.00    0.67     0.3     0.3    0.28    0.77    0.90    6.12    5.83    4.15    3.96    0.06    0.06    0.06    0.05    0.05    0.04    0.09    0.09    0.06    0.06    0.73    0.34    0.35    0.32    0.82    0.94    6.21    5.92    4.22    4.02
 1981 293   129    60     2    76.1    74.6     1.5  122.72  166.16    0.49    0.00    0.00  122.72  143.22    4.13    0.00    0.70     0.3     0.3    0.28    0.77    0.91    6.16    5.87    4.18    3.99    0.06    0.05    0.06    0.04    0.05    0.04    0.09    0.09    0.06    0.06    0.75    0.34    0.34    0.33    0.82    0.95    6.25    5.96    4.25    4.05
 1981 294   130    60     2    76.6    75.2     1.5  123.40  166.85    0.49    0.00    0.00  123.40  143.32    4.13    0.00    0.72     0.3     0.3    0.29    0.78    0.92    6.20    5.91    4.21    4.02    0.06    0.05    0.05    0.04    0.04    0.04    0.09    0.09    0.06    0.07    0.78    0.34    0.33    0.33    0.82    0.96    6.29    6.00    4.28    4.08
 1981 295   131    60     2    77.2    75.8     1.4  124.07  167.52    0.49    0.00    0.00  124.07  143.40    4.13    0.00    0.74     0.3     0.3    0.30    0.78    0.93    6.25    5.95    4.25    4.05    0.06    0.05    0.05    0.04    0.04    0.04    0.09    0.09    0.06    0.07    0.80    0.34    0.34    0.34    0.83    0.97    6.33    6.04    4.31    4.11
 1981 296   132    60     2    77.8    76.4     1.4  124.73  168.19    0.49    0.00    0.00  124.73  143.45    4.13    0.00    0.76     0.3     0.3    0.31    0.79    0.94    6.29    6.00    4.28    4.08    0.06    0.04    0.05    0.04    0.04    0.04    0.09    0.09    0.06    0.07    0.82    0.36    0.34    0.35    0.83    0.98    6.37    6.08    4.34    4.14
 1981 297   133    60     2    78.5    77.0     1.4  125.38  168.85    0.49    0.00    0.00  125.38  143.48    4.13    0.00    0.79     0.3     0.3    0.32    0.80    0.96    6.33    6.04    4.31    4.11    0.06    0.04    0.04    0.04    0.04    0.04    0.09    0.09    0.06    0.07    0.85    0.37    0.35    0.36    0.84    0.99    6.41    6.12    4.37    4.17
 1981 298   134    60     2    79.1    77.6     1.4  126.03  169.51    0.49    0.00    0.00  126.03  143.51    4.13    0.00    0.81     0.4     0.3    0.34    0.80    0.97    6.37    6.08    4.34    4.14    0.06    0.04    0.04    0.04    0.04    0.04    0.09    0.09    0.06    0.07    0.87    0.39    0.37    0.38    0.85    1.01    6.46    6.16    4.40    4.21
 1981 299   135    60     2    79.7    78.3     1.4  126.69  170.16    0.49    0.00    0.00  126.69  143.52    4.13    0.00    0.83     0.4     0.3    0.36    0.81    0.98    6.41    6.12    4.37    4.17    0.07    0.04    0.04    0.04    0.04    0.04    0.09    0.09    0.06    0.07    0.89    0.41    0.39    0.39    0.85    1.02    6.50    6.21    4.43    4.24
 1981 300   136    60     2    80.3    78.9     1.4  127.33  170.81    0.49    0.00    0.00  127.33  143.53    4.13    0.00    0.85     0.4     0.4    0.37    0.82    1.00    6.45    6.16    4.40    4.20    0.07    0.04    0.04    0.04    0.04    0.04    0.09    0.09    0.06    0.07    0.92    0.43    0.41    0.41    0.86    1.04    6.54    6.25    4.46    4.27
 1981 301   137    60     2    81.0    79.6     1.4  127.99  171.47    0.49    0.00    0.00  127.99  143.55    4.13    0.00    0.87     0.4     0.4    0.39    0.83    1.01    6.49    6.20    4.43    4.23    0.07    0.04    0.04    0.04    0.04    0.04    0.09    0.09    0.06    0.07    0.94    0.44    0.42    0.42    0.87    1.05    6.58    6.29    4.50    4.30
 1981 302   138    60     2    81.6    80.2     1.4  128.64  172.12    0.49    0.00    0.00  128.64  143.55    4.13    0.00    0.89     0.4     0.4    0.40    0.84    1.03    6.54    6.24    4.46    4.26    0.07    0.04    0.04    0.04    0.04    0.04    0.09    0.09    0.06    0.07    0.97    0.46    0.44    0.44    0.88    1.07    6.62    6.33    4.53    4.33
 1981 303   139    60     2    82.3    80.9     1.4  129.30  172.78    0.49    0.00    0.00  129.30  143.55    4.13    0.00    0.92     0.4     0.4    0.42    0.86    1.04    6.58    6.29    4.49    4.29    0.08    0.04    0.04    0.04    0.04    0.04    0.09    0.09    0.06    0.07    0.99    0.48    0.46    0.45    0.90    1.08    6.66    6.37    4.56    4.36
 1981 304   140    60     2    82.9    81.5     1.4  129.96  173.44    0.49    0.00    0.00  129.96  143.55    4.13    0.00    0.94     0.5     0.4    0.43    0.87    1.06    6.62    6.33    4.52    4.33    0.08    0.04    0.04    0.04    0.04    0.04    0.09    0.09    0.06    0.06    1.02    0.50    0.48    0.47    0.91    1.09    6.71    6.41    4.59    4.39
 1981 305   141    60     2    83.6    82.2     1.4  130.63  174.12    0.49    0.00    0.00  130.63  143.55    4.13    0.00    0.96     0.5     0.5    0.45    0.89    1.07    6.66    6.37    4.56    4.36    0.08    0.04    0.04    0.04    0.04    0.04    0.08    0.09    0.06    0.06    1.04    0.51    0.50    0.49    0.93    1.11    6.75    6.46    4.62    4.42

*DSSAT Cropping System Model Ver. 4.7.5.008 -release  JAN 07, 2021 20:14:37

*RUN   2        : ERiMA DCC1                MZCER047 ETMZmelk    1
 MODEL          : MZCER047 - Maize
 EXPERIMENT     : ETMZmelk SN MELKSSAL
 DATA PATH      : C:\IRI\Python_Dash\ET_DSS_hist\TEST\
 TREATMENT  1   : ERiMA DCC1                MZCER047
  
!                                                                                                                              NO3 (ppm) at soil dep. (cm):                                                    NH4 (ppm) at soil dep. (cm):                                                    Total Inorganic N @dep(ppm):
!                                                                                                                               0-5    5-15   15-20   20-35   35-50   50-65   65-81   81-97  97-118 118-200     0-5    5-15   15-20   20-35   35-50   50-65   65-81   81-97  97-118 118-200     0-5    5-15   15-20   20-35   35-50   50-65   65-81   81-97  97-118 118-200
@YEAR DOY   DAS  NAPC  NI#M    NIAD    NITD    NHTD    NMNC    NITC    NDNC    NIMC    AMLC   NNMNC    NUCM    NLCC    TDFC    NI1D    NI2D    NI3D    NI4D    NI5D    NI6D    NI7D    NI8D    NI9D    NI10    NH1D    NH2D    NH3D    NH4D    NH5D    NH6D    NH7D    NH8D    NH9D    NH10    NT1D    NT2D    NT3D    NT4D    NT5D    NT6D    NT7D    NT8D    NT9D    NT10    
 1982 164     0     0     0    42.0    39.6     2.4    0.00    0.00    0.00    0.00    0.00    0.00    0.00    0.00    0.00   15.00    15.0    15.0    2.00    0.00    0.00    0.00    0.00    0.00    0.00    0.10    0.10    0.10    0.10    0.10    0.10    0.10    0.10    0.10    0.10   15.10   15.10   15.10    2.10    0.10    0.10    0.10    0.10    0.10    0.10
 1982 165     1     0     0    43.1    40.9     2.2    1.12    1.35    0.00    0.00    0.00    1.12    0.00    0.00    0.00   15.07    15.1    15.1    2.06    0.06    0.06    0.06    0.06    0.05    0.05    0.12    0.12    0.12    0.11    0.10    0.10    0.09    0.09    0.08    0.08   15.19   15.19   15.19    2.17    0.16    0.16    0.15    0.15    0.13    0.13
 1982 166     2    30     1    60.7    42.2    18.5    2.22    2.57    0.00    0.00    0.00    2.22    0.00    0.00    0.00   15.39    15.1    15.1    2.13    0.12    0.12    0.11    0.11    0.10    0.09   27.57    0.13    0.13    0.11    0.10    0.10    0.09    0.09    0.07    0.07   42.96   15.21   15.19    2.23    0.22    0.22    0.19    0.19    0.17    0.17
 1982 167     3    30     1    68.3    53.8    14.5    3.30   14.27    0.00    0.00    0.00    3.30    0.00    0.00    0.00   33.23    15.1    15.0    2.19    0.18    0.18    0.16    0.15    0.13    0.13   20.95    0.13    0.14    0.11    0.10    0.10    0.08    0.09    0.07    0.07   54.18   15.23   15.18    2.30    0.28    0.28    0.24    0.24    0.20    0.20
 1982 168     4    30     1    72.3    62.1    10.2    4.34   22.63    0.00    0.00    0.00    4.34    0.00    0.00    0.00   45.68    15.1    15.0    2.24    0.24    0.23    0.20    0.19    0.17    0.16   13.74    0.14    0.14    0.11    0.10    0.10    0.08    0.09    0.07    0.07   59.43   15.24   15.17    2.36    0.34    0.33    0.28    0.28    0.23    0.23
 1982 169     5    30     1    74.8    68.0     6.8    5.38   28.54    0.00    0.00    0.00    5.38    0.00    0.00    0.00   54.06    15.1    15.0    2.30    0.29    0.29    0.24    0.24    0.20    0.19    8.15    0.14    0.14    0.11    0.10    0.10    0.08    0.09    0.07    0.07   62.20   15.25   15.17    2.42    0.40    0.39    0.33    0.32    0.26    0.26
 1982 170     6    30     1    76.6    71.7     4.9    6.39   32.28    0.00    0.00    0.00    6.39    0.00    0.00    0.00   58.91    15.1    15.0    2.36    0.35    0.34    0.28    0.28    0.23    0.22    4.95    0.14    0.14    0.11    0.10    0.11    0.09    0.09    0.07    0.07   63.86   15.27   15.16    2.47    0.45    0.44    0.37    0.36    0.30    0.29
 1982 171     7    30     1    78.0    74.1     3.9    7.37   34.75    0.00    0.00    0.00    7.37    0.00    0.00    0.00   61.68    15.1    15.0    2.41    0.40    0.39    0.32    0.32    0.26    0.25    3.23    0.14    0.15    0.12    0.11    0.11    0.09    0.09    0.07    0.07   64.91   15.27   15.14    2.53    0.50    0.50    0.41    0.40    0.33    0.32
 1982 172     8    30     1    79.5    76.0     3.5    8.33   36.66    0.00    0.00    0.00    8.33    0.00    0.00    0.00   63.57    15.1    15.0    2.47    0.45    0.44    0.36    0.36    0.29    0.28    2.59    0.15    0.15    0.12    0.11    0.11    0.09    0.09    0.07    0.07   66.16   15.28   15.13    2.58    0.56    0.55    0.45    0.44    0.36    0.35
 1982 173     9    30     1    80.8    77.8     3.0    9.33   38.46    0.00    0.00    0.00    9.33    0.00    0.00    0.00   65.21    15.1    15.0    2.52    0.50    0.49    0.41    0.40    0.32    0.31    1.74    0.15    0.15    0.12    0.11    0.11    0.09    0.09    0.07    0.07   66.95   15.28   15.12    2.64    0.61    0.60    0.49    0.49    0.39    0.38
 1982 174    10    30     1    81.9    79.2     2.7   10.30   39.93    0.00    0.00    0.00   10.30    0.00    0.00    0.00   66.35    15.1    15.0    2.58    0.55    0.54    0.45    0.44    0.35    0.34    1.14    0.15    0.15    0.12    0.11    0.11    0.09    0.09    0.07    0.07   67.49   15.29   15.10    2.69    0.66    0.65    0.53    0.53    0.42    0.41
 1982 175    11    30     1    82.9    80.5     2.4   11.27   41.20    0.00    0.00    0.00   11.27    0.00    0.00    0.00   67.18    15.1    14.9    2.63    0.61    0.60    0.49    0.48    0.38    0.37    0.73    0.15    0.15    0.12    0.11    0.11    0.09    0.09    0.07    0.07   67.91   15.30   15.09    2.75    0.71    0.70    0.57    0.57    0.45    0.44
 1982 176    12    30     1    83.9    81.7     2.2   12.27   42.40    0.00    0.00    0.00   12.27    0.00    0.00    0.00   67.82    15.2    14.9    2.69    0.66    0.65    0.53    0.52    0.41    0.40    0.46    0.15    0.15    0.12    0.11    0.11    0.09    0.09    0.07    0.07   68.27   15.30   15.08    2.80    0.77    0.76    0.62    0.61    0.48    0.47
 1982 177    13    30     1    85.0    82.8     2.1   13.28   43.53    0.00    0.00    0.00   13.28    0.00    0.00    0.00   68.31    15.2    14.9    2.74    0.72    0.70    0.57    0.56    0.44    0.43    0.31    0.15    0.15    0.12    0.11    0.11    0.09    0.09    0.07    0.07   68.62   15.31   15.07    2.86    0.82    0.81    0.66    0.65    0.51    0.50
 1982 178    14    30     1    86.0    83.9     2.1   14.27   44.58    0.00    0.00    0.00   14.27    0.00    0.00    0.00   68.72    15.2    14.9    2.80    0.77    0.76    0.61    0.60    0.47    0.46    0.23    0.15    0.15    0.12    0.11    0.11    0.09    0.09    0.07    0.07   68.96   15.32   15.06    2.92    0.88    0.87    0.70    0.69    0.54    0.53
 1982 179    15    30     1    87.0    84.9     2.1   15.27   45.59    0.00    0.00    0.00   15.27    0.00    0.00    0.00   59.33    20.1    14.9    2.86    0.82    0.81    0.66    0.64    0.50    0.49    0.20    0.15    0.15    0.12    0.11    0.11    0.09    0.09    0.07    0.07   59.53   20.21   15.05    2.97    0.93    0.92    0.74    0.73    0.57    0.56
 1982 180    16    30     1    88.0    85.9     2.1   16.25   46.60    0.00    0.00    0.00   16.25    0.00    0.00    0.00   49.57    25.1    14.9    2.91    0.88    0.86    0.70    0.69    0.53    0.52    0.18    0.15    0.15    0.12    0.11    0.11    0.09    0.09    0.07    0.07   49.75   25.26   15.04    3.03    0.99    0.97    0.78    0.77    0.60    0.59
 1982 181    17    30     1    88.7    86.6     2.1   17.24   47.61    0.00    0.00    0.00   17.24    0.25    0.00    0.00   45.62    27.0    16.0    2.73    0.92    0.90    0.73    0.72    0.56    0.55    0.17    0.15    0.13    0.12    0.11    0.11    0.09    0.09    0.07    0.07   45.79   27.11   16.10    2.84    1.03    1.01    0.82    0.81    0.63    0.62
 1982 182    18    30     1    89.3    87.2     2.1   18.24   48.60    0.00    0.00    0.00   18.24    0.67    0.00    0.00   48.46    25.3    15.2    3.14    0.97    0.94    0.77    0.76    0.59    0.58    0.18    0.15    0.14    0.12    0.11    0.11    0.09    0.09    0.07    0.07   48.64   25.43   15.31    3.26    1.07    1.05    0.86    0.85    0.65    0.65
 1982 183    19    30     1    89.8    87.8     2.1   19.25   49.62    0.00    0.00    0.00   19.25    1.13    0.00    0.00   54.48    23.5    13.0    3.00    1.01    0.98    0.81    0.80    0.62    0.61    0.16    0.15    0.14    0.12    0.11    0.11    0.09    0.09    0.07    0.07   54.64   23.64   13.17    3.12    1.12    1.09    0.90    0.89    0.68    0.67
 1982 184    20    30     1    90.3    88.2     2.0   20.26   50.64    0.00    0.00    0.00   20.26    1.69    0.00    0.00   51.32    25.5    12.4    2.84    1.06    1.02    0.85    0.84    0.64    0.64    0.15    0.15    0.14    0.12    0.11    0.11    0.09    0.09    0.07    0.07   51.47   25.66   12.52    2.96    1.16    1.12    0.93    0.92    0.71    0.70
 1982 185    21    30     1    90.6    88.6     2.0   21.26   51.66    0.00    0.00    0.00   21.26    2.34    0.00    0.00   47.32    26.3    13.5    3.09    1.10    1.06    0.88    0.87    0.67    0.66    0.15    0.14    0.14    0.11    0.11    0.11    0.09    0.09    0.07    0.07   47.48   26.49   13.68    3.20    1.21    1.16    0.97    0.96    0.74    0.73
 1982 186    22    30     1    90.8    88.8     2.0   22.27   52.67    0.00    0.00    0.00   22.27    3.11    0.00    0.00   44.33    26.2    14.7    3.58    1.14    1.10    0.92    0.91    0.70    0.69    0.16    0.14    0.14    0.11    0.11    0.11    0.09    0.09    0.07    0.07   44.49   26.37   14.80    3.69    1.25    1.20    1.01    1.00    0.77    0.76
 1982 187    23    30     1    91.0    89.0     2.0   23.30   53.70    0.00    0.00    0.00   23.30    3.98    0.00    0.00   47.97    24.1    13.2    3.99    1.19    1.13    0.96    0.95    0.73    0.72    0.16    0.14    0.15    0.11    0.11    0.11    0.09    0.09    0.07    0.07   48.13   24.27   13.39    4.09    1.29    1.24    1.04    1.03    0.79    0.79
 1982 188    24    30     1    90.8    88.8     2.0   24.35   54.76    0.00    0.00    0.00   24.35    5.21    0.00    0.00   53.34    22.0    11.5    3.79    1.23    1.17    1.00    0.99    0.76    0.75    0.15    0.14    0.14    0.11    0.10    0.11    0.09    0.09    0.06    0.07   53.49   22.09   11.62    3.90    1.34    1.28    1.08    1.07    0.82    0.82
 1982 189    25    30     1    91.1    89.1     2.0   25.39   55.81    0.00    0.00    0.00   25.39    5.98    0.00    0.00   53.15    21.6    11.4    3.84    1.29    1.23    1.04    1.03    0.79    0.78    0.14    0.14    0.14    0.11    0.10    0.11    0.08    0.09    0.06    0.07   53.29   21.78   11.52    3.95    1.39    1.34    1.13    1.12    0.86    0.85
 1982 190    26    30     1    90.7    88.7     2.0   26.44   56.87    0.00    0.00    0.00   26.44    7.46    0.00    0.00   52.56    21.0    11.1    3.87    1.35    1.29    1.09    1.07    0.82    0.81    0.13    0.14    0.14    0.11    0.10    0.10    0.08    0.09    0.06    0.07   52.70   21.19   11.27    3.98    1.45    1.39    1.17    1.16    0.89    0.88
 1982 191    27    30     1    87.9    85.9     2.0   27.47   57.92    0.00    0.00    0.00   27.47   11.24    0.00    0.00   50.98    19.4    10.3    3.84    1.40    1.34    1.13    1.12    0.86    0.85    0.12    0.13    0.14    0.11    0.10    0.10    0.08    0.09    0.06    0.07   51.10   19.53   10.46    3.95    1.51    1.45    1.21    1.20    0.92    0.91
 1982 192    28    30     1    87.3    85.3     2.0   28.45   58.90    0.00    0.00    0.00   28.45   12.80    0.00    0.00   50.86    18.6     9.9    3.84    1.46    1.40    1.17    1.16    0.89    0.88    0.11    0.13    0.14    0.11    0.10    0.11    0.09    0.09    0.06    0.07   50.97   18.71   10.07    3.95    1.56    1.50    1.26    1.25    0.95    0.94
 1982 193    29    30     1    85.7    83.7     1.9   29.42   59.90    0.00    0.00    0.00   29.42   15.40    0.00    0.00   51.21    17.1     9.1    3.75    1.51    1.45    1.21    1.20    0.92    0.91    0.10    0.11    0.13    0.11    0.11    0.11    0.09    0.09    0.07    0.07   51.30   17.17    9.18    3.86    1.62    1.56    1.30    1.29    0.98    0.97
 1982 194    30    30     1    84.9    83.0     1.9   30.37   60.88    0.00    0.00    0.00   30.37   17.15    0.00    0.00   51.53    16.1     8.5    3.67    1.57    1.51    1.26    1.24    0.95    0.94    0.09    0.10    0.11    0.11    0.11    0.11    0.09    0.09    0.07    0.07   51.61   16.16    8.62    3.78    1.67    1.61    1.34    1.33    1.01    1.00
 1982 195    31    30     1    83.9    82.0     1.9   31.28   61.82    0.00    0.00    0.00   31.28   19.01    0.00    0.00   51.82    15.0     7.9    3.54    1.62    1.56    1.30    1.29    0.98    0.97    0.08    0.09    0.10    0.11    0.11    0.11    0.09    0.09    0.07    0.07   51.90   15.13    8.04    3.64    1.73    1.67    1.39    1.37    1.05    1.03
 1982 196    32    30     1    82.7    80.9     1.9   32.17   62.72    0.00    0.00    0.00   32.17   21.07    0.00    0.00   52.08    14.0     7.3    3.35    1.67    1.61    1.34    1.33    1.01    1.00    0.07    0.09    0.10    0.10    0.11    0.11    0.09    0.09    0.07    0.07   52.15   14.05    7.41    3.45    1.78    1.72    1.43    1.41    1.08    1.06
 1982 197    33    30     1    81.5    79.6     1.8   33.04   63.62    0.00    0.00    0.00   33.04   23.20    0.00    0.00   52.32    12.9     6.7    3.11    1.73    1.66    1.38    1.37    1.04    1.03    0.07    0.08    0.09    0.10    0.11    0.11    0.09    0.09    0.07    0.07   52.39   12.99    6.77    3.21    1.83    1.77    1.47    1.45    1.11    1.09
 1982 198    34    30     1    79.9    78.1     1.8   33.88   64.48    0.00    0.00    0.00   33.88   25.63    0.00    0.00   52.54    11.8     6.0    2.80    1.78    1.72    1.42    1.41    1.07    1.06    0.07    0.07    0.08    0.09    0.11    0.11    0.09    0.09    0.07    0.07   52.61   11.83    6.06    2.89    1.89    1.82    1.51    1.50    1.14    1.12
 1982 199    35    30     1    77.7    75.9     1.8   34.69   65.30    0.00    0.00    0.00   34.69   28.63    0.00    0.00   52.73    10.4     5.1    2.40    1.82    1.77    1.46    1.45    1.10    1.09    0.06    0.07    0.08    0.08    0.11    0.11    0.09    0.09    0.07    0.07   52.79   10.42    5.15    2.48    1.93    1.87    1.55    1.53    1.17    1.15
 1982 200    36    30     1    76.3    74.5     1.8   35.47   66.10    0.00    0.00    0.00   35.47   30.78    0.00    0.00   52.90     9.4     4.4    2.12    1.87    1.81    1.50    1.49    1.13    1.11    0.06    0.06    0.07    0.07    0.11    0.11    0.09    0.09    0.07    0.07   52.96    9.42    4.49    2.19    1.98    1.92    1.59    1.57    1.20    1.18
 1982 201    37    30     1    75.2    73.4     1.8   36.23   66.86    0.00    0.00    0.00   36.23   32.62    0.00    0.00   53.05     8.5     3.9    1.86    1.91    1.86    1.54    1.52    1.16    1.14    0.06    0.06    0.07    0.07    0.11    0.11    0.09    0.09    0.07    0.07   53.11    8.58    3.92    1.93    2.02    1.97    1.63    1.61    1.22    1.21
 1982 202    38    30     1    73.7    71.9     1.8   36.98   67.62    0.00    0.00    0.00   36.98   34.91    0.00    0.00   33.40    17.4     3.1    1.51    1.94    1.91    1.58    1.56    1.18    1.17    0.06    0.06    0.07    0.07    0.11    0.11    0.09    0.09    0.07    0.07   33.46   17.50    3.20    1.57    2.05    2.02    1.67    1.65    1.25    1.24
 1982 203    39    30     1    73.8    72.0     1.8   37.77   68.36    0.00    0.00    0.00   37.77   35.58    0.00    0.00   25.36    21.0     3.1    1.52    1.99    1.95    1.61    1.60    1.21    1.20    0.11    0.07    0.06    0.06    0.11    0.11    0.09    0.09    0.07    0.07   25.46   21.05    3.20    1.59    2.10    2.07    1.70    1.69    1.28    1.27
 1982 204    40    30     1    74.6    72.7     1.9   38.56   69.08    0.00    0.00    0.00   38.56   35.58    0.00    0.00   24.01    21.8     3.1    1.53    2.03    1.99    1.65    1.63    1.24    1.22    0.14    0.11    0.06    0.06    0.11    0.11    0.09    0.09    0.07    0.07   24.15   21.91    3.14    1.59    2.14    2.10    1.74    1.72    1.31    1.29
 1982 205    41    30     1    71.2    69.3     1.9   39.36   69.86    0.00    0.00    0.00   39.36   39.73    0.00    0.00   15.93    19.9     8.7    1.49    2.06    2.02    1.68    1.66    1.26    1.25    0.15    0.13    0.06    0.06    0.11    0.11    0.09    0.09    0.07    0.07   16.08   19.98    8.72    1.54    2.18    2.14    1.77    1.75    1.33    1.32
 1982 206    42    30     1    68.4    66.4     2.0   40.20   70.65    0.00    0.00    0.00   40.20   43.41    0.00    0.00   13.11    17.3    10.1    1.71    2.10    2.06    1.71    1.69    1.29    1.27    0.17    0.14    0.10    0.06    0.11    0.11    0.09    0.09    0.07    0.07   13.29   17.48   10.19    1.76    2.21    2.17    1.80    1.79    1.36    1.34
 1982 207    43    30     1    65.7    63.7     2.0   41.05   71.47    0.03    0.00    0.00   41.05   46.93    0.00    0.00   10.97    15.2    10.2    1.97    2.14    2.10    1.75    1.73    1.31    1.30    0.18    0.15    0.12    0.06    0.11    0.11    0.09    0.09    0.07    0.07   11.15   15.37   10.30    2.03    2.25    2.21    1.84    1.82    1.38    1.37
 1982 208    44    30     1    62.1    60.1     2.0   41.90   72.30    0.05    0.00    0.00   41.90   51.30    0.00    0.00    8.93    13.0     9.4    2.10    2.17    2.14    1.78    1.76    1.34    1.33    0.17    0.15    0.14    0.06    0.11    0.11    0.09    0.09    0.07    0.07    9.10   13.14    9.54    2.17    2.28    2.25    1.87    1.85    1.41    1.40
 1982 209    45    30     1    58.4    56.4     2.0   42.80   73.19    0.06    0.00    0.00   42.80   55.86    0.00    0.00    5.70    10.2     9.4    2.63    2.21    2.18    1.82    1.80    1.37    1.35    0.17    0.15    0.14    0.06    0.11    0.11    0.09    0.09    0.07    0.07    5.87   10.38    9.58    2.70    2.32    2.29    1.91    1.89    1.44    1.42
 1982 210    46    30     1    54.8    52.7     2.0   43.72   74.09    0.07    0.00    0.00   43.72   60.43    0.00    0.00    3.66     7.5     8.2    3.16    2.24    2.22    1.85    1.84    1.40    1.38    0.19    0.15    0.15    0.07    0.11    0.11    0.09    0.09    0.07    0.07    3.84    7.63    8.39    3.24    2.35    2.33    1.94    1.93    1.46    1.45
 1982 211    47    60     2    65.9    49.0    16.9   44.66   74.99    0.08    0.00    0.00   44.66   65.05    0.00    0.00    2.68     5.4     6.2    3.18    2.27    2.26    1.89    1.87    1.42    1.41   24.91    0.16    0.16    0.09    0.11    0.11    0.09    0.09    0.07    0.07   27.59    5.51    6.36    3.27    2.38    2.37    1.98    1.96    1.49    1.48
 1982 212    48    60     2    70.8    52.9    17.9   45.61   80.68    0.09    0.00    0.00   45.61   68.55    0.00    0.00    9.65     4.2     5.6    3.62    2.31    2.31    1.93    1.91    1.45    1.44   26.52    0.16    0.17    0.10    0.11    0.11    0.09    0.09    0.07    0.07   36.17    4.38    5.80    3.72    2.42    2.42    2.02    2.00    1.52    1.51
 1982 213    49    60     2    70.7    55.5    15.1   46.55   85.94    0.11    0.00    0.00   46.55   73.33    0.00    0.00   13.78     4.0     4.8    3.64    2.51    2.35    1.97    1.95    1.48    1.47   17.00    2.60    0.18    0.11    0.11    0.11    0.09    0.09    0.07    0.07   30.77    6.61    4.99    3.75    2.62    2.46    2.06    2.04    1.55    1.53
 1982 214    50    60     2    69.7    57.9    11.8   47.47   90.66    0.16    0.00    0.00   47.47   77.05    0.00    0.00   13.61     5.4     4.5    3.59    2.82    2.39    2.00    1.99    1.51    1.49   11.10    2.38    0.90    0.12    0.11    0.11    0.09    0.09    0.07    0.07   24.71    7.80    5.44    3.70    2.93    2.50    2.09    2.07    1.57    1.56
 1982 215    51    60     2    68.7    59.5     9.1   48.37   94.33    0.21    0.00    0.00   48.37   79.85    0.00    0.00   11.11     6.6     5.3    3.64    3.13    2.54    2.04    2.02    1.53    1.52    7.50    1.79    1.06    0.19    0.11    0.11    0.09    0.09    0.07    0.07   18.62    8.37    6.32    3.83    3.24    2.65    2.13    2.11    1.60    1.59
 1982 216    52    60     2    63.6    57.1     6.4   49.26   97.02    0.25    0.00    0.00   49.26   86.32    0.00    0.00    8.87     5.7     4.6    3.29    3.24    2.75    2.07    2.06    1.56    1.55    4.24    1.13    0.92    0.24    0.13    0.11    0.09    0.09    0.07    0.07   13.11    6.84    5.52    3.53    3.38    2.86    2.16    2.15    1.63    1.62
 1982 217    53    60     2    58.6    54.1     4.5   50.17   99.21    0.27    0.00    0.00   50.17   92.48    0.00    0.00    7.15     4.5     3.5    2.81    3.21    2.82    2.34    2.11    1.59    1.58    2.15    0.67    0.66    0.24    0.15    0.11    0.09    0.09    0.07    0.07    9.30    5.16    4.20    3.05    3.36    2.94    2.43    2.20    1.66    1.64
 1982 218    54    60     2    54.8    51.4     3.4   51.09  101.01    0.27    0.00    0.00   51.09   97.31    0.00    0.00    4.22     3.8     3.2    2.50    3.22    2.89    2.40    2.15    1.62    1.60    0.99    0.45    0.45    0.22    0.15    0.11    0.09    0.09    0.07    0.07    5.22    4.26    3.70    2.72    3.37    3.01    2.49    2.24    1.68    1.67
 1982 219    55    60     2    51.2    48.3     2.9   52.02  102.36    0.28    0.00    0.00   52.02  101.88    0.00    0.00    2.68     2.5     2.3    2.07    3.17    2.93    2.47    2.32    1.64    1.63    0.63    0.33    0.34    0.19    0.15    0.12    0.09    0.09    0.07    0.07    3.31    2.86    2.60    2.25    3.32    3.06    2.57    2.41    1.71    1.70
 1982 220    56    60     2    48.2    45.6     2.6   52.96  103.63    0.28    0.00    0.00   52.96  105.85    0.00    0.00    1.22     1.5     1.6    1.64    3.16    2.97    2.51    2.38    1.67    1.66    0.38    0.26    0.27    0.17    0.15    0.13    0.09    0.09    0.07    0.07    1.61    1.80    1.84    1.81    3.30    3.10    2.61    2.47    1.74    1.73
 1982 221    57    60     2    45.7    43.2     2.5   53.88  104.70    0.28    0.00    0.00   53.88  109.32    0.00    0.00    0.35     0.6     0.7    1.12    3.05    3.06    2.61    2.44    1.73    1.69    0.34    0.22    0.23    0.15    0.14    0.13    0.09    0.09    0.07    0.07    0.69    0.82    0.97    1.27    3.19    3.19    2.71    2.53    1.80    1.75
 1982 222    58    60     2    44.9    42.4     2.5   54.79  105.63    0.29    0.00    0.00   54.79  111.05    0.00    0.00    0.29     0.3     0.4    0.73    2.82    3.10    2.73    2.52    1.82    1.71    0.31    0.22    0.23    0.15    0.14    0.13    0.09    0.09    0.07    0.07    0.60    0.52    0.58    0.88    2.96    3.23    2.83    2.62    1.89    1.78
 1982 223    59    60     2    44.8    42.3     2.5   55.70  106.56    0.31    0.00    0.00   55.70  112.01    0.03    0.00    0.32     0.3     0.3    0.49    2.39    2.89    2.76    2.56    1.88    1.83    0.29    0.21    0.22    0.14    0.15    0.14    0.10    0.10    0.07    0.07    0.61    0.52    0.53    0.64    2.54    3.02    2.85    2.65    1.94    1.90
 1982 224    60    60     2    44.8    42.4     2.4   56.61  107.57    0.31    0.00    0.00   56.61  112.89    0.03    0.00    0.29     0.3     0.4    0.39    2.25    2.81    2.81    2.61    1.92    1.88    0.23    0.19    0.20    0.14    0.14    0.14    0.10    0.10    0.07    0.07    0.52    0.53    0.58    0.53    2.39    2.94    2.91    2.71    1.99    1.95
 1982 225    61    60     2    44.8    42.4     2.4   57.53  108.48    0.32    0.00    0.00   57.53  113.81    0.03    0.00    0.19     0.3     0.3    0.34    2.01    2.72    2.90    2.70    1.96    1.91    0.23    0.18    0.19    0.13    0.14    0.14    0.10    0.10    0.07    0.07    0.42    0.47    0.52    0.47    2.15    2.85    3.00    2.79    2.04    1.98
 1982 226    62    60     2    43.9    41.4     2.5   58.46  109.29    0.34    0.00    0.00   58.46  114.51    1.14    0.00    0.24     0.3     0.3    0.29    1.62    2.35    2.79    2.70    1.99    1.93    0.23    0.19    0.20    0.14    0.14    0.14    0.10    0.10    0.08    0.08    0.47    0.47    0.49    0.42    1.76    2.49    2.88    2.80    2.07    2.01
 1982 227    63    60     2    43.9    41.4     2.5   59.37  110.20    0.35    0.00    0.00   59.37  115.05    1.47    0.00    0.33     0.3     0.3    0.30    1.48    2.18    2.76    2.72    2.02    1.96    0.21    0.18    0.18    0.13    0.14    0.14    0.10    0.10    0.08    0.08    0.54    0.50    0.51    0.44    1.62    2.32    2.86    2.82    2.10    2.04
 1982 228    64    60     2    44.1    41.6     2.5   60.28  111.12    0.35    0.00    0.00   60.28  115.72    1.52    0.00    0.22     0.3     0.4    0.33    1.41    2.10    2.80    2.77    2.05    1.99    0.19    0.17    0.17    0.13    0.14    0.14    0.10    0.10    0.08    0.08    0.40    0.49    0.55    0.46    1.55    2.23    2.89    2.87    2.13    2.07
 1982 229    65    60     2    43.8    41.2     2.5   61.17  111.97    0.35    0.00    0.00   61.17  116.39    2.06    0.00    0.25     0.3     0.3    0.30    1.24    1.90    2.71    2.79    2.09    2.02    0.20    0.18    0.18    0.13    0.14    0.13    0.10    0.10    0.08    0.08    0.45    0.47    0.47    0.43    1.37    2.03    2.81    2.89    2.17    2.11
 1982 230    66    60     2    44.1    41.6     2.5   62.06  112.89    0.36    0.00    0.00   62.06  116.89    2.11    0.00    0.22     0.3     0.4    0.32    1.18    1.83    2.75    2.83    2.12    2.05    0.19    0.17    0.18    0.13    0.14    0.13    0.09    0.10    0.09    0.09    0.40    0.49    0.54    0.45    1.32    1.96    2.84    2.93    2.20    2.14
 1982 231    67    60     2    43.8    41.3     2.5   62.96  113.75    0.36    0.00    0.00   62.96  117.50    2.64    0.00    0.25     0.3     0.3    0.30    1.05    1.67    2.64    2.84    2.15    2.08    0.20    0.18    0.19    0.13    0.14    0.13    0.09    0.10    0.09    0.09    0.45    0.47    0.47    0.42    1.19    1.79    2.74    2.93    2.24    2.17
 1982 232    68    60     2    44.2    41.7     2.5   63.87  114.68    0.36    0.00    0.00   63.87  117.96    2.74    0.00    0.33     0.3     0.3    0.31    1.02    1.59    2.66    2.87    2.18    2.11    0.19    0.17    0.18    0.13    0.13    0.13    0.09    0.09    0.09    0.09    0.52    0.50    0.50    0.43    1.15    1.72    2.75    2.96    2.27    2.20
 1982 233    69    60     2    44.5    42.1     2.5   64.78  115.63    0.37    0.00    0.00   64.78  118.53    2.74    0.00    0.34     0.3     0.3    0.31    1.01    1.54    2.69    2.91    2.21    2.14    0.17    0.17    0.17    0.13    0.12    0.12    0.09    0.09    0.09    0.09    0.51    0.49    0.50    0.43    1.13    1.66    2.79    3.00    2.29    2.23
[...]
 2014 244    80    60     2    49.7    47.4     2.3   74.46  131.82    0.00    0.00    0.00   74.46  124.84    1.12    0.00    0.22     0.3     0.4    0.47    1.10    1.59    3.10    3.27    2.47    2.43    0.20    0.19    0.19    0.13    0.13    0.12    0.09    0.09    0.07    0.07    0.43    0.54    0.60    0.60    1.23    1.72    3.19    3.36    2.55    2.49
 2014 245    81    60     2    50.4    48.1     2.3   75.43  132.83    0.00    0.00    0.00   75.43  124.84    1.43    0.00    0.32     0.4     0.5    0.52    1.12    1.61    3.03    3.28    2.50    2.46    0.18    0.18    0.18    0.13    0.13    0.13    0.09    0.09    0.08    0.07    0.50    0.60    0.66    0.65    1.25    1.74    3.12    3.38    2.58    2.52
 2014 246    82    60     2    51.3    49.1     2.2   76.38  133.83    0.00    0.00    0.00   76.38  124.84    1.43    0.00    0.41     0.5     0.6    0.58    1.18    1.67    3.07    3.32    2.53    2.49    0.17    0.17    0.17    0.13    0.12    0.12    0.09    0.09    0.08    0.07    0.58    0.68    0.73    0.71    1.30    1.79    3.16    3.41    2.61    2.55
 2014 247    83    60     2    52.3    50.1     2.2   77.34  134.81    0.00    0.00    0.00   77.34  124.84    1.43    0.00    0.51     0.6     0.6    0.64    1.24    1.73    3.11    3.36    2.55    2.51    0.16    0.16    0.16    0.12    0.12    0.11    0.09    0.09    0.08    0.07    0.67    0.75    0.80    0.77    1.35    1.84    3.20    3.45    2.63    2.58
 2014 248    84    60     2    53.2    51.1     2.2   78.29  135.78    0.00    0.00    0.00   78.29  124.84    1.43    0.00    0.36     0.7     0.8    0.74    1.30    1.78    3.14    3.40    2.58    2.54    0.16    0.16    0.16    0.12    0.11    0.11    0.09    0.09    0.08    0.07    0.52    0.82    0.98    0.87    1.41    1.90    3.24    3.49    2.66    2.61
 2014 249    85    60     2    54.2    52.0     2.2   79.24  136.70    0.00    0.00    0.00   79.24  124.84    1.43    0.00    0.39     0.7     0.8    0.81    1.38    1.89    3.18    3.43    2.61    2.57    0.18    0.16    0.16    0.12    0.11    0.11    0.09    0.09    0.08    0.07    0.57    0.84    0.98    0.93    1.49    2.00    3.27    3.53    2.69    2.64
 2014 250    86    60     2    55.1    53.0     2.2   80.18  137.68    0.01    0.00    0.00   80.18  124.84    1.43    0.00    0.48     0.8     0.9    0.87    1.43    1.94    3.22    3.47    2.64    2.60    0.17    0.16    0.16    0.12    0.11    0.11    0.09    0.09    0.08    0.07    0.65    0.91    1.05    0.99    1.54    2.05    3.31    3.56    2.72    2.67
 2014 251    87    60     2    56.1    53.9     2.1   81.15  138.67    0.01    0.00    0.00   81.15  124.84    1.43    0.00    0.45     0.8     1.0    0.95    1.48    2.00    3.26    3.51    2.68    2.63    0.16    0.16    0.16    0.12    0.11    0.11    0.09    0.09    0.07    0.07    0.62    0.99    1.18    1.07    1.59    2.11    3.35    3.60    2.75    2.69
 2014 252    88    60     2    57.0    54.9     2.1   82.11  139.63    0.01    0.00    0.00   82.11  124.84    1.43    0.00    0.48     0.9     1.1    1.04    1.57    2.05    3.30    3.55    2.71    2.66    0.19    0.16    0.16    0.12    0.11    0.11    0.09    0.09    0.07    0.07    0.67    1.02    1.21    1.16    1.68    2.16    3.39    3.64    2.78    2.72
 2014 253    89    60     2    58.0    55.9     2.1   83.09  140.62    0.01    0.00    0.00   83.09  124.84    1.43    0.00    0.46     0.9     1.2    1.13    1.63    2.10    3.34    3.58    2.74    2.69    0.17    0.15    0.15    0.12    0.11    0.11    0.09    0.09    0.07    0.07    0.63    1.08    1.35    1.25    1.74    2.21    3.43    3.68    2.81    2.75
 2014 254    90    60     2    59.0    56.9     2.1   84.07  141.60    0.01    0.00    0.00   84.07  124.84    1.43    0.00    0.49     0.9     1.2    1.20    1.75    2.16    3.38    3.62    2.77    2.71    0.19    0.15    0.15    0.12    0.11    0.11    0.09    0.09    0.07    0.07    0.68    1.10    1.35    1.32    1.86    2.27    3.47    3.72    2.83    2.78
 2014 255    91    60     2    59.8    57.7     2.1   85.05  142.61    0.01    0.00    0.00   85.05  125.05    1.43    0.00    0.39     0.9     1.3    1.28    1.83    2.22    3.42    3.66    2.80    2.74    0.18    0.15    0.15    0.12    0.11    0.11    0.09    0.09    0.07    0.07    0.57    1.05    1.42    1.40    1.94    2.33    3.51    3.75    2.86    2.81
 2014 256    92    60     2    60.6    58.4     2.1   86.04  143.57    0.01    0.00    0.00   86.04  125.22    1.43    0.00    0.29     0.8     1.2    1.35    1.93    2.35    3.46    3.70    2.83    2.77    0.20    0.16    0.16    0.12    0.11    0.11    0.09    0.09    0.07    0.07    0.49    0.95    1.36    1.47    2.04    2.46    3.55    3.79    2.89    2.84
 2014 257    93    60     2    59.6    57.4     2.2   87.02  144.50    0.01    0.00    0.00   87.02  126.86    1.74    0.00    0.30     0.5     0.6    0.98    1.78    2.37    3.44    3.72    2.87    2.82    0.21    0.17    0.18    0.12    0.12    0.11    0.09    0.09    0.07    0.07    0.50    0.65    0.83    1.11    1.90    2.48    3.53    3.81    2.93    2.88
 2014 258    94    60     2    60.2    58.0     2.1   88.00  145.52    0.01    0.00    0.00   88.00  127.22    1.77    0.00    0.36     0.5     0.6    0.96    1.80    2.41    3.48    3.76    2.90    2.85    0.19    0.17    0.17    0.12    0.11    0.11    0.09    0.09    0.07    0.07    0.54    0.65    0.80    1.08    1.92    2.52    3.56    3.85    2.96    2.91
 2014 259    95    60     2    60.3    58.2     2.1   88.98  146.53    0.01    0.00    0.00   88.98  128.10    1.77    0.00    0.35     0.4     0.5    0.85    1.80    2.39    3.52    3.80    2.93    2.88    0.17    0.16    0.16    0.12    0.11    0.11    0.09    0.09    0.07    0.07    0.52    0.58    0.69    0.98    1.91    2.50    3.60    3.89    2.99    2.94
 2014 260    96    60     2    60.8    58.7     2.1   89.96  147.52    0.01    0.00    0.00   89.96  128.54    1.77    0.00    0.38     0.4     0.5    0.83    1.82    2.40    3.56    3.84    2.96    2.91    0.16    0.16    0.16    0.12    0.11    0.11    0.09    0.09    0.07    0.07    0.54    0.59    0.68    0.95    1.93    2.51    3.64    3.93    3.02    2.97
 2014 261    97    60     2    60.3    58.2     2.1   90.95  148.53    0.01    0.00    0.00   90.95  130.02    1.77    0.00    0.34     0.3     0.3    0.59    1.75    2.29    3.60    3.88    2.99    2.94    0.16    0.15    0.15    0.12    0.11    0.11    0.09    0.09    0.07    0.07    0.49    0.48    0.49    0.71    1.86    2.40    3.69    3.97    3.05    3.00
 2014 262    98    60     2    60.3    58.2     2.1   91.94  149.54    0.01    0.00    0.00   91.94  131.06    1.77    0.00    0.33     0.3     0.3    0.44    1.69    2.18    3.64    3.92    3.02    2.97    0.15    0.15    0.15    0.12    0.11    0.11    0.09    0.09    0.07    0.07    0.48    0.48    0.48    0.56    1.80    2.29    3.73    4.01    3.08    3.03
 2014 263    99    60     2    61.0    59.0     2.0   92.92  150.53    0.01    0.00    0.00   92.92  131.30    1.77    0.00    0.18     0.3     0.4    0.52    1.73    2.21    3.68    3.96    3.05    3.00    0.14    0.14    0.14    0.12    0.11    0.11    0.09    0.09    0.07    0.07    0.32    0.48    0.58    0.64    1.84    2.31    3.77    4.05    3.11    3.06
 2014 264   100    60     2    61.3    59.2     2.1   93.92  151.46    0.01    0.00    0.00   93.92  131.99    1.77    0.00    0.18     0.3     0.3    0.46    1.75    2.18    3.72    4.00    3.08    3.03    0.17    0.17    0.17    0.12    0.11    0.11    0.09    0.09    0.07    0.07    0.35    0.44    0.48    0.58    1.85    2.29    3.81    4.09    3.14    3.09
 2014 265   101    60     2    61.5    59.3     2.2   94.92  152.43    0.01    0.00    0.00   94.92  132.80    1.77    0.00    0.22     0.3     0.3    0.34    1.52    2.29    3.76    4.05    3.11    3.06    0.19    0.18    0.19    0.12    0.11    0.11    0.09    0.09    0.07    0.07    0.42    0.47    0.48    0.46    1.63    2.40    3.85    4.13    3.18    3.12
 2014 266   102    60     2    61.8    59.7     2.1   95.91  153.45    0.01    0.00    0.00   95.91  133.46    1.77    0.00    0.28     0.3     0.4    0.32    1.48    2.19    3.80    4.08    3.14    3.09    0.18    0.17    0.17    0.12    0.11    0.11    0.09    0.09    0.07    0.07    0.45    0.50    0.53    0.45    1.59    2.30    3.89    4.17    3.21    3.15
 2014 267   103    60     2    62.1    59.9     2.1   96.90  154.43    0.01    0.00    0.00   96.90  134.19    1.77    0.00    0.30     0.3     0.3    0.31    1.39    2.16    3.84    4.12    3.17    3.12    0.19    0.16    0.17    0.12    0.11    0.11    0.09    0.09    0.07    0.07    0.49    0.48    0.49    0.44    1.50    2.27    3.93    4.21    3.24    3.18
 2014 268   104    60     2    62.4    60.3     2.1   97.89  155.43    0.01    0.00    0.00   97.89  134.86    1.77    0.00    0.30     0.3     0.4    0.32    1.35    2.07    3.88    4.16    3.20    3.14    0.18    0.16    0.16    0.12    0.11    0.11    0.09    0.09    0.07    0.07    0.47    0.49    0.51    0.44    1.46    2.18    3.97    4.25    3.26    3.21
 2014 269   105    60     2    62.7    60.6     2.1   98.88  156.43    0.01    0.00    0.00   98.88  135.57    1.77    0.00    0.30     0.3     0.3    0.32    1.31    2.01    3.92    4.20    3.23    3.17    0.19    0.16    0.16    0.12    0.11    0.11    0.09    0.09    0.07    0.07    0.49    0.48    0.48    0.44    1.42    2.12    4.01    4.29    3.29    3.24
 2014 270   106    60     2    63.0    60.9     2.1   99.87  157.42    0.01    0.00    0.00   99.87  136.22    1.77    0.00    0.28     0.3     0.4    0.32    1.28    1.93    3.96    4.24    3.26    3.20    0.18    0.16    0.16    0.12    0.11    0.11    0.09    0.09    0.07    0.07    0.46    0.49    0.51    0.44    1.39    2.04    4.05    4.32    3.32    3.27
 2014 271   107    60     2    63.3    61.2     2.1  100.86  158.40    0.01    0.00    0.00  100.86  136.89    1.77    0.00    0.28     0.3     0.3    0.32    1.23    1.90    4.00    4.28    3.28    3.23    0.20    0.16    0.16    0.12    0.11    0.11    0.09    0.09    0.07    0.07    0.48    0.47    0.48    0.44    1.34    2.01    4.09    4.36    3.35    3.30
 2014 272   108    60     2    63.7    61.6     2.1  101.87  159.42    0.01    0.00    0.00  101.87  137.50    1.77    0.00    0.29     0.3     0.4    0.32    1.21    1.83    4.04    4.31    3.31    3.26    0.18    0.16    0.16    0.12    0.11    0.11    0.09    0.09    0.07    0.07    0.47    0.49    0.51    0.45    1.32    1.94    4.13    4.40    3.38    3.33
 2014 273   109    60     2    64.1    61.9     2.1  102.87  160.41    0.01    0.00    0.00  102.87  138.17    1.77    0.00    0.29     0.3     0.3    0.32    1.16    1.81    4.08    4.35    3.34    3.29    0.20    0.16    0.16    0.12    0.11    0.11    0.09    0.09    0.07    0.07    0.49    0.47    0.48    0.44    1.27    1.92    4.17    4.44    3.41    3.36
 2014 274   110    60     2    64.5    62.4     2.1  103.88  161.44    0.01    0.00    0.00  103.88  138.76    1.77    0.00    0.35     0.3     0.3    0.32    1.14    1.75    4.12    4.39    3.37    3.32    0.18    0.16    0.16    0.12    0.11    0.11    0.09    0.09    0.07    0.07    0.53    0.49    0.49    0.44    1.25    1.86    4.21    4.48    3.44    3.38
 2014 275   111    60     2    64.8    62.7     2.1  104.91  162.49    0.01    0.00    0.00  104.91  139.41    1.77    0.00    0.36     0.3     0.3    0.32    1.12    1.70    4.16    4.43    3.40    3.35    0.17    0.15    0.15    0.12    0.11    0.11    0.09    0.09    0.07    0.07    0.52    0.49    0.49    0.44    1.23    1.81    4.25    4.52    3.47    3.41
 2014 276   112    60     2    65.2    63.1     2.1  105.93  163.51    0.01    0.00    0.00  105.93  140.07    1.77    0.00    0.22     0.3     0.4    0.33    1.10    1.64    4.20    4.47    3.43    3.38    0.16    0.15    0.15    0.12    0.11    0.11    0.09    0.09    0.07    0.07    0.38    0.48    0.53    0.45    1.21    1.75    4.29    4.56    3.50    3.44
 2014 277   113    60     2    65.6    63.4     2.1  106.93  164.47    0.01    0.00    0.00  106.93  140.70    1.77    0.00    0.18     0.3     0.3    0.33    1.09    1.62    4.24    4.51    3.46    3.41    0.19    0.16    0.17    0.12    0.11    0.11    0.09    0.09    0.07    0.07    0.36    0.45    0.49    0.45    1.21    1.73    4.33    4.59    3.52    3.47
 2014 278   114    60     2    65.9    63.7     2.2  107.94  165.42    0.01    0.00    0.00  107.94  141.24    1.89    0.00    0.23     0.3     0.3    0.30    0.96    1.61    4.14    4.55    3.51    3.46    0.20    0.18    0.19    0.13    0.11    0.11    0.09    0.09    0.07    0.07    0.43    0.46    0.47    0.42    1.07    1.72    4.23    4.64    3.58    3.52
 2014 279   115    60     2    66.5    64.3     2.2  108.93  166.44    0.01    0.00    0.00  108.93  141.66    1.89    0.00    0.33     0.3     0.3    0.31    0.94    1.58    4.17    4.59    3.54    3.49    0.19    0.18    0.18    0.12    0.11    0.11    0.09    0.09    0.07    0.07    0.51    0.50    0.50    0.44    1.06    1.70    4.26    4.68    3.61    3.55
 2014 280   116    60     2    66.9    64.7     2.1  109.92  167.45    0.01    0.00    0.00  109.92  142.25    1.89    0.00    0.23     0.3     0.4    0.33    0.94    1.55    4.21    4.63    3.57    3.51    0.17    0.17    0.17    0.12    0.11    0.11    0.09    0.09    0.07    0.07    0.40    0.49    0.54    0.46    1.06    1.67    4.30    4.71    3.64    3.58
 2014 281   117    60     2    67.3    65.1     2.2  110.92  168.41    0.01    0.00    0.00  110.92  142.85    1.89    0.00    0.22     0.3     0.3    0.32    0.93    1.54    4.27    4.66    3.60    3.54    0.19    0.18    0.18    0.12    0.11    0.11    0.09    0.09    0.07    0.07    0.41    0.48    0.50    0.45    1.04    1.66    4.35    4.75    3.66    3.61
 2014 282   118    60     2    67.7    65.5     2.2  111.93  169.38    0.01    0.00    0.00  111.93  143.36    1.89    0.00    0.22     0.3     0.3    0.32    0.88    1.51    4.25    4.74    3.67    3.57    0.21    0.18    0.20    0.13    0.12    0.11    0.09    0.09    0.07    0.07    0.43    0.48    0.51    0.44    1.01    1.63    4.34    4.83    3.73    3.64
 2014 283   119    60     2    68.3    66.0     2.3  112.94  170.32    0.01    0.00    0.00  112.94  143.85    1.89    0.00    0.23     0.3     0.3    0.32    0.84    1.46    4.20    4.81    3.71    3.63    0.22    0.19    0.21    0.13    0.13    0.12    0.09    0.09    0.07    0.07    0.45    0.49    0.53    0.44    0.97    1.58    4.29    4.90    3.78    3.70
 2014 284   120    60     2    67.3    64.9     2.4  113.98  171.27    0.01    0.00    0.00  113.98  144.34    3.43    0.00    0.29     0.3     0.3    0.30    0.76    1.30    3.70    4.59    3.68    3.66    0.22    0.19    0.21    0.13    0.13    0.13    0.09    0.09    0.08    0.07    0.52    0.50    0.52    0.43    0.89    1.43    3.80    4.68    3.76    3.73
 2014 285   121    60     2    67.7    65.4     2.3  115.03  172.39    0.01    0.00    0.00  115.03  144.79    3.61    0.00    0.37     0.3     0.3    0.32    0.77    1.29    3.67    4.60    3.71    3.68    0.19    0.17    0.19    0.12    0.12    0.12    0.09    0.09    0.08    0.08    0.56    0.51    0.53    0.45    0.89    1.41    3.77    4.69    3.79    3.76
 2014 286   122    60     2    68.1    65.9     2.3  116.07  173.47    0.01    0.00    0.00  116.07  145.40    3.61    0.00    0.37     0.3     0.4    0.32    0.78    1.28    3.72    4.64    3.73    3.71    0.17    0.16    0.17    0.12    0.12    0.12    0.09    0.09    0.08    0.08    0.54    0.50    0.52    0.44    0.90    1.40    3.81    4.73    3.81    3.78
 2014 287   123    60     2    68.6    66.3     2.2  117.13  174.55    0.01    0.00    0.00  117.13  146.00    3.61    0.00    0.36     0.3     0.3    0.32    0.79    1.27    3.76    4.68    3.76    3.73    0.16    0.15    0.16    0.12    0.11    0.11    0.09    0.09    0.08    0.08    0.52    0.49    0.50    0.44    0.91    1.39    3.85    4.77    3.84    3.81
 2014 288   124    60     2    69.0    66.8     2.2  118.19  175.63    0.02    0.00    0.00  118.19  146.59    3.61    0.00    0.36     0.3     0.3    0.32    0.80    1.27    3.81    4.72    3.79    3.76    0.15    0.15    0.15    0.12    0.11    0.11    0.09    0.09    0.08    0.08    0.51    0.49    0.49    0.44    0.92    1.38    3.90    4.81    3.87    3.84
 2014 289   125    60     2    69.5    67.4     2.2  119.25  176.76    0.02    0.00    0.00  119.25  147.17    3.61    0.00    0.36     0.3     0.3    0.32    0.81    1.26    3.86    4.75    3.82    3.79    0.15    0.15    0.15    0.12    0.11    0.11    0.09    0.09    0.07    0.08    0.51    0.48    0.49    0.44    0.92    1.37    3.94    4.84    3.90    3.87
 2014 290   126    60     2    70.0    67.9     2.1  120.30  177.87    0.02    0.00    0.00  120.30  147.75    3.61    0.00    0.36     0.3     0.3    0.32    0.82    1.26    3.90    4.79    3.85    3.82    0.15    0.14    0.15    0.12    0.11    0.11    0.09    0.09    0.07    0.07    0.51    0.47    0.48    0.44    0.93    1.37    3.99    4.88    3.92    3.90
 2014 291   127    60     2    70.4    68.4     2.0  121.33  178.96    0.02    0.00    0.00  121.33  148.33    3.61    0.00    0.34     0.3     0.3    0.32    0.83    1.23    3.95    4.83    3.89    3.86    0.13    0.13    0.14    0.12    0.11    0.11    0.08    0.09    0.07    0.07    0.47    0.46    0.47    0.43    0.94    1.35    4.03    4.92    3.95    3.93
 2014 292   128    60     2    70.9    68.9     2.0  122.35  180.03    0.02    0.00    0.00  122.35  148.87    3.61    0.00    0.20     0.3     0.4    0.33    0.83    1.21    3.99    4.88    3.92    3.89    0.12    0.12    0.13    0.11    0.11    0.11    0.08    0.09    0.06    0.07    0.31    0.46    0.52    0.44    0.94    1.32    4.08    4.96    3.99    3.96
 2014 293   129    60     2    71.4    69.4     2.0  123.41  181.04    0.02    0.00    0.00  123.41  149.44    3.61    0.00    0.24     0.3     0.3    0.34    0.84    1.22    4.04    4.91    3.95    3.92    0.16    0.14    0.14    0.11    0.11    0.11    0.08    0.08    0.06    0.07    0.40    0.43    0.46    0.45    0.95    1.33    4.12    5.00    4.01    3.99
 2014 294   130    60     2    72.4    70.4     2.0  124.47  182.11    0.02    0.00    0.00  124.47  149.44    3.61    0.00    0.35     0.4     0.4    0.42    0.90    1.31    4.08    4.95    3.97    3.95    0.16    0.15    0.15    0.11    0.10    0.11    0.08    0.08    0.06    0.06    0.51    0.52    0.55    0.53    1.01    1.41    4.17    5.03    4.04    4.01
 2014 295   131    60     2    73.5    71.5     2.0  125.53  183.18    0.02    0.00    0.00  125.53  149.44    3.61    0.00    0.48     0.5     0.5    0.49    0.96    1.39    4.13    4.99    4.00    3.97    0.15    0.15    0.15    0.12    0.10    0.10    0.08    0.08    0.06    0.06    0.63    0.60    0.64    0.61    1.07    1.49    4.21    5.07    4.06    4.04
 2014 296   132    60     2    74.5    72.5     2.0  126.58  184.23    0.02    0.00    0.00  126.58  149.44    3.61    0.00    0.57     0.5     0.6    0.55    1.02    1.44    4.17    5.03    4.03    4.01    0.15    0.15    0.15    0.12    0.10    0.10    0.08    0.08    0.06    0.06    0.72    0.69    0.72    0.67    1.12    1.54    4.25    5.11    4.10    4.07
 2014 297   133    60     2    75.6    73.6     2.0  127.61  185.27    0.02    0.00    0.00  127.61  149.44    3.61    0.00    0.67     0.6     0.7    0.62    1.07    1.50    4.21    5.07    4.06    4.04    0.14    0.15    0.15    0.12    0.10    0.10    0.08    0.08    0.06    0.06    0.81    0.77    0.80    0.74    1.17    1.59    4.30    5.16    4.13    4.10
