*Soil Organic Matter daily output file

*DSSAT Cropping System Model Ver. 4.7.5.008 -release  JAN 07, 2021 20:33:24

*RUN   1        : ERiMA DCC1                MZCER047 ETMZmelk    1
 MODEL          : MZCER047 - Maize
 EXPERIMENT     : ETMZmelk SN MELKSSAL
 DATA PATH      : C:\IRI\Python_Dash\ET_DSS_hist\TEST\
 TREATMENT  1   : ERiMA DCC1                MZCER047
  
@YEAR DOY   DAS    OMAC    SCDD    SOCD    SC0D    SCTD   SOMCT    LCTD    ONAC    SNDD    SOND    SN0D    SNTD   SOMNT    LNTD
 1981 164     0       0   15750  272505       0  272505  272505     0.0    0.00  1454.1 18903.2    0.00 18903.2 18903.2    0.00
 1981 165     1       0   15749  272489       0  272489  272489     0.0    0.00  1454.1 18902.1    0.00 18902.1 18902.1    0.00
 1981 166     2       0   15748  272474       0  272474  272474     0.0    0.00  1454.0 18901.0    0.00 18901.0 18901.0    0.00
 1981 167     3       0   15747  272458       0  272458  272458     0.0    0.00  1453.9 18899.9    0.00 18899.9 18899.9    0.00
 1981 168     4       0   15746  272443       0  272443  272443     0.0    0.00  1453.8 18898.8    0.00 18898.8 18898.8    0.00
 1981 169     5       0   15745  272427       0  272427  272427     0.0    0.00  1453.7 18897.7    0.00 18897.7 18897.7    0.00
 1981 170     6       0   15744  272411       0  272411  272411     0.0    0.00  1453.6 18896.6    0.00 18896.6 18896.6    0.00
 1981 171     7       0   15743  272395       0  272395  272395     0.0    0.00  1453.5 18895.5    0.00 18895.5 18895.5    0.00
 1981 172     8       0   15742  272380       0  272380  272380     0.0    0.00  1453.4 18894.4    0.00 18894.4 18894.4    0.00
 1981 173     9       0   15741  272364       0  272364  272364     0.0    0.00  1453.3 18893.3    0.00 18893.3 18893.3    0.00
 1981 174    10       0   15740  272349       0  272349  272349     0.0    0.00  1453.2 18892.3    0.00 18892.3 18892.3    0.00
 1981 175    11       0   15739  272334       0  272334  272334     0.0    0.00  1453.1 18891.2    0.00 18891.2 18891.2    0.00
 1981 176    12       0   15738  272318       0  272318  272318     0.0    0.00  1453.0 18890.1    0.00 18890.1 18890.1    0.00
 1981 177    13       0   15737  272303       0  272303  272303     0.0    0.00  1453.0 18889.1    0.00 18889.1 18889.1    0.00
 1981 178    14       0   15736  272287       0  272287  272287     0.0    0.00  1452.9 18888.0    0.00 18888.0 18888.0    0.00
 1981 179    15       0   15735  272272       0  272272  272272     0.0    0.00  1452.8 18886.9    0.00 18886.9 18886.9    0.00
 1981 180    16       0   15734  272258       0  272258  272258     0.1    0.00  1452.7 18885.9    0.00 18885.9 18885.9    0.00
 1981 181    17       0   15734  272243       0  272243  272243     0.1    0.00  1452.6 18884.9    0.00 18884.9 18884.9    0.00
 1981 182    18       0   15733  272228       0  272228  272228     0.2    0.00  1452.6 18883.9    0.00 18883.9 18883.9    0.01
 1981 183    19       0   15732  272214       0  272214  272214     0.2    0.00  1452.5 18882.9    0.00 18882.9 18882.9    0.01
 1981 184    20       0   15731  272200       0  272200  272200     0.3    0.00  1452.4 18881.9    0.00 18881.9 18881.9    0.01
 1981 185    21       0   15731  272186       0  272186  272186     0.4    0.00  1452.4 18881.0    0.00 18881.0 18881.0    0.01
 1981 186    22       0   15730  272173       0  272173  272172     0.5    0.00  1452.3 18880.0    0.00 18880.0 18880.0    0.02
 1981 187    23       0   15729  272159       0  272159  272159     0.6    0.00  1452.2 18879.1    0.00 18879.1 18879.1    0.02
 1981 188    24       0   15728  272145       0  272145  272145     0.7    0.00  1452.1 18878.1    0.00 18878.1 18878.1    0.03
 1981 189    25       0   15728  272132       0  272132  272131     0.9    0.00  1452.1 18877.2    0.00 18877.2 18877.1    0.03
 1981 190    26       0   15727  272118       0  272118  272117     1.1    0.00  1452.0 18876.2    0.00 18876.2 18876.2    0.04
 1981 191    27       0   15726  272105       0  272105  272103     1.3    0.00  1452.0 18875.3    0.00 18875.3 18875.3    0.05
 1981 192    28       0   15726  272091       0  272091  272090     1.5    0.00  1451.9 18874.4    0.00 18874.4 18874.3    0.05
 1981 193    29       0   15725  272078       0  272078  272076     1.8    0.00  1451.8 18873.5    0.00 18873.5 18873.4    0.06
 1981 194    30       0   15724  272065       0  272065  272063     2.1    0.00  1451.7 18872.5    0.00 18872.5 18872.5    0.07
 1981 195    31       0   15723  272052       0  272052  272049     2.4    0.00  1451.7 18871.6    0.00 18871.6 18871.5    0.08
 1981 196    32       0   15722  272039       0  272039  272036     2.7    0.00  1451.6 18870.7    0.00 18870.7 18870.6    0.09
 1981 197    33       0   15721  272025       0  272025  272022     3.1    0.00  1451.5 18869.7    0.00 18869.7 18869.6    0.10
 1981 198    34       0   15721  272012       0  272012  272008     3.4    0.00  1451.4 18868.8    0.00 18868.8 18868.7    0.11
 1981 199    35       0   15720  271998       0  271998  271994     3.8    0.00  1451.4 18867.8    0.00 18867.8 18867.7    0.12
 1981 200    36       0   15719  271985       0  271985  271980     4.2    0.00  1451.3 18866.9    0.00 18866.9 18866.7    0.13
 1981 201    37       0   15718  271971       0  271971  271967     4.5    0.00  1451.2 18865.9    0.00 18865.9 18865.8    0.14
 1981 202    38       0   15717  271958       0  271958  271953     4.9    0.00  1451.1 18865.0    0.00 18865.0 18864.8    0.15
 1981 203    39       0   15716  271945       0  271945  271939     5.2    0.00  1451.1 18864.0    0.00 18864.0 18863.9    0.17
 1981 204    40       0   15716  271932       0  271932  271926     5.6    0.00  1451.0 18863.1    0.00 18863.1 18862.9    0.18
 1981 205    41       0   15715  271919       0  271919  271913     6.0    0.00  1450.9 18862.2    0.00 18862.2 18862.0    0.19
 1981 206    42       0   15714  271905       0  271905  271899     6.3    0.00  1450.8 18861.3    0.00 18861.3 18861.1    0.20
 1981 207    43       0   15713  271892       0  271892  271886     6.7    0.00  1450.8 18860.3    0.00 18860.3 18860.1    0.21
 1981 208    44       0   15712  271880       0  271880  271872     7.1    0.00  1450.7 18859.4    0.00 18859.4 18859.2    0.23
 1981 209    45       0   15712  271867       0  271867  271859     7.6    0.00  1450.6 18858.6    0.00 18858.6 18858.3    0.24
 1981 210    46       0   15711  271854       0  271854  271846     8.0    0.00  1450.5 18857.7    0.00 18857.7 18857.4    0.25
 1981 211    47       0   15710  271842       0  271842  271834     8.4    0.00  1450.5 18856.8    0.00 18856.8 18856.5    0.26
 1981 212    48       0   15709  271830       0  271830  271821     8.8    0.00  1450.4 18855.9    0.00 18855.9 18855.6    0.28
 1981 213    49       0   15709  271817       0  271817  271808     9.2    0.00  1450.3 18855.0    0.00 18855.0 18854.8    0.29
 1981 214    50       0   15708  271805       0  271805  271795     9.6    0.00  1450.3 18854.2    0.00 18854.2 18853.9    0.30
 1981 215    51       0   15707  271792       0  271792  271782     9.3    0.00  1450.2 18853.3    0.00 18853.3 18853.0    0.30
 1981 216    52       0   15706  271779       0  271779  271769     9.6    0.00  1450.1 18852.4    0.00 18852.4 18852.0    0.31
 1981 217    53       0   15706  271765       0  271765  271756     9.3    0.00  1450.0 18851.4    0.00 18851.4 18851.1    0.31
 1981 218    54       0   15705  271752       0  271752  271742     9.2    0.00  1450.0 18850.5    0.00 18850.5 18850.2    0.30
 1981 219    55       0   15704  271738       0  271738  271729     9.1    0.00  1449.9 18849.6    0.00 18849.6 18849.3    0.30
 1981 220    56       0   15703  271724       0  271724  271715     9.0    0.00  1449.8 18848.6    0.00 18848.6 18848.3    0.30
 1981 221    57       0   15702  271711       0  271711  271702     8.9    0.00  1449.7 18847.7    0.00 18847.7 18847.4    0.30
 1981 222    58       0   15702  271697       0  271697  271688     8.8    0.00  1449.7 18846.7    0.00 18846.7 18846.4    0.30
 1981 223    59       0   15701  271684       0  271684  271675     8.7    0.00  1449.6 18845.8    0.00 18845.8 18845.5    0.29
 1981 224    60       0   15700  271670       0  271670  271661     8.7    0.00  1449.5 18844.9    0.00 18844.9 18844.6    0.29
 1981 225    61       0   15699  271656       0  271656  271648     8.6    0.00  1449.5 18843.9    0.00 18843.9 18843.6    0.29
 1981 226    62       0   15699  271643       0  271643  271634     8.5    0.00  1449.4 18843.0    0.00 18843.0 18842.7    0.29
 1981 227    63       0   15698  271629       0  271629  271621     8.4    0.00  1449.3 18842.0    0.00 18842.0 18841.8    0.29
 1981 228    64       0   15697  271616       0  271616  271608     8.4    0.00  1449.2 18841.1    0.00 18841.1 18840.8    0.28
 1981 229    65       0   15696  271603       0  271603  271594     8.3    0.00  1449.2 18840.2    0.00 18840.2 18839.9    0.28
 1981 230    66       0   15695  271589       0  271589  271581     8.2    0.00  1449.1 18839.3    0.00 18839.3 18839.0    0.28
 1981 231    67       0   15695  271575       0  271575  271567     8.2    0.00  1449.0 18838.3    0.00 18838.3 18838.0    0.28
 1981 232    68       0   15694  271561       0  271561  271553     8.1    0.00  1448.9 18837.3    0.00 18837.3 18837.1    0.28
 1981 233    69       0   15693  271548       0  271548  271540     8.0    0.00  1448.9 18836.4    0.00 18836.4 18836.1    0.27
 1981 234    70       0   15692  271534       0  271534  271526     8.0    0.00  1448.8 18835.4    0.00 18835.4 18835.1    0.27
 1981 235    71       0   15691  271520       0  271520  271512     7.9    0.00  1448.7 18834.4    0.00 18834.4 18834.2    0.27
 1981 236    72       0   15690  271507       0  271507  271498     8.9    0.00  1448.6 18833.5    0.00 18833.5 18833.2    0.29
 1981 237    73       0   15690  271494       0  271494  271485     9.7    0.00  1448.6 18832.6    0.00 18832.6 18832.3    0.31
 1981 238    74       0   15689  271482       0  271482  271471    10.5    0.00  1448.5 18831.7    0.00 18831.7 18831.4    0.34
 1981 239    75       0   15688  271469       0  271469  271458    11.3    0.00  1448.4 18830.8    0.00 18830.8 18830.4    0.36
 1981 240    76       0   15687  271457       0  271457  271445    12.0    0.00  1448.3 18829.9    0.00 18829.9 18829.5    0.39
 1981 241    77       0   15686  271444       0  271444  271431    12.8    0.00  1448.3 18829.0    0.00 18829.0 18828.6    0.42
 1981 242    78       0   15686  271431       0  271431  271417    13.6    0.00  1448.2 18828.1    0.00 18828.1 18827.6    0.45
 1981 243    79       0   15685  271418       0  271418  271404    14.4    0.00  1448.1 18827.1    0.00 18827.1 18826.7    0.47
 1981 244    80       0   15684  271405       0  271405  271390    15.2    0.00  1448.1 18826.2    0.00 18826.2 18825.7    0.50
 1981 245    81       0   15683  271392       0  271392  271376    16.0    0.00  1448.0 18825.3    0.00 18825.3 18824.8    0.53
 1981 246    82       0   15682  271379       0  271379  271363    16.8    0.00  1447.9 18824.4    0.00 18824.4 18823.8    0.56
 1981 247    83       0   15682  271367       0  271367  271349    17.8    0.00  1447.8 18823.5    0.00 18823.5 18822.9    0.59
 1981 248    84       0   15681  271354       0  271354  271336    18.7    0.00  1447.8 18822.6    0.00 18822.6 18822.0    0.62
 1981 249    85       0   15680  271342       0  271342  271322    19.5    0.00  1447.7 18821.7    0.00 18821.7 18821.0    0.65
 1981 250    86       0   15679  271328       0  271328  271308    20.3    0.00  1447.6 18820.7    0.00 18820.7 18820.0    0.68
 1981 251    87       0   15678  271315       0  271315  271294    21.1    0.00  1447.5 18819.8    0.00 18819.8 18819.1    0.71
 1981 252    88       0   15678  271302       0  271302  271281    21.8    0.00  1447.5 18818.9    0.00 18818.9 18818.1    0.73
 1981 253    89       0   15677  271289       0  271289  271267    22.6    0.00  1447.4 18817.9    0.00 18817.9 18817.2    0.76
 1981 254    90       0   15676  271276       0  271276  271253    23.5    0.00  1447.3 18817.0    0.00 18817.0 18816.2    0.80
 1981 255    91       0   15675  271263       0  271263  271239    24.4    0.00  1447.2 18816.0    0.00 18816.0 18815.2    0.83
 1981 256    92       0   15674  271250       0  271250  271225    25.3    0.00  1447.2 18815.1    0.00 18815.1 18814.3    0.86
 1981 257    93       0   15674  271237       0  271237  271211    26.3    0.00  1447.1 18814.2    0.00 18814.2 18813.3    0.89
 1981 258    94       0   15673  271225       0  271225  271198    27.2    0.00  1447.0 18813.3    0.00 18813.3 18812.4    0.92
 1981 259    95       0   15672  271213       0  271213  271185    28.1    0.00  1446.9 18812.4    0.00 18812.4 18811.5    0.95
 1981 260    96       0   15671  271201       0  271201  271172    28.9    0.00  1446.9 18811.6    0.00 18811.6 18810.6    0.98
 1981 261    97       0   15670  271188       0  271188  271158    29.7    0.00  1446.8 18810.7    0.00 18810.7 18809.7    1.01
 1981 262    98       0   15670  271175       0  271175  271145    30.4    0.00  1446.7 18809.8    0.00 18809.8 18808.7    1.03
 1981 263    99       0   15669  271162       0  271162  271131    31.2    0.00  1446.7 18808.8    0.00 18808.8 18807.8    1.06
 1981 264   100       0   15668  271149       0  271149  271118    31.9    0.00  1446.6 18807.9    0.00 18807.9 18806.8    1.09
 1981 265   101       0   15667  271136       0  271136  271104    32.6    0.00  1446.5 18807.0    0.00 18807.0 18805.9    1.11
 1981 266   102       0   15666  271123       0  271123  271090    33.3    0.00  1446.4 18806.1    0.00 18806.1 18804.9    1.14
 1981 267   103       0   15666  271110       0  271110  271076    33.8    0.00  1446.4 18805.1    0.00 18805.1 18804.0    1.16
 1981 268   104       0   15665  271097       0  271097  271062    34.4    0.00  1446.3 18804.2    0.00 18804.2 18803.0    1.19
 1981 269   105       0   15664  271083       0  271083  271048    35.1    0.00  1446.2 18803.2    0.00 18803.2 18802.0    1.21
 1981 270   106       0   15663  271069       0  271069  271035    34.0    0.00  1446.1 18802.3    0.00 18802.3 18801.1    1.19
 1981 271   107       0   15662  271054       0  271054  271021    33.0    0.00  1446.1 18801.3    0.00 18801.3 18800.1    1.17
 1981 272   108       0   15662  271040       0  271040  271007    32.2    0.00  1446.0 18800.3    0.00 18800.3 18799.2    1.15

*DSSAT Cropping System Model Ver. 4.7.5.008 -release  JAN 07, 2021 20:33:24

*RUN   2        : ERiMA DCC1                MZCER047 ETMZmelk    1
 MODEL          : MZCER047 - Maize
 EXPERIMENT     : ETMZmelk SN MELKSSAL
 DATA PATH      : C:\IRI\Python_Dash\ET_DSS_hist\TEST\
 TREATMENT  1   : ERiMA DCC1                MZCER047
  
@YEAR DOY   DAS    OMAC    SCDD    SOCD    SC0D    SCTD   SOMCT    LCTD    ONAC    SNDD    SOND    SN0D    SNTD   SOMNT    LNTD
 1982 164     0       0   15750  272505       0  272505  272505     0.0    0.00  1454.1 18903.2    0.00 18903.2 18903.2    0.00
 1982 165     1       0   15749  272489       0  272489  272489     0.0    0.00  1454.1 18902.1    0.00 18902.1 18902.1    0.00
 1982 166     2       0   15748  272473       0  272473  272473     0.0    0.00  1454.0 18900.9    0.00 18900.9 18900.9    0.00
 1982 167     3       0   15747  272458       0  272458  272458     0.0    0.00  1453.9 18899.9    0.00 18899.9 18899.9    0.00
 1982 168     4       0   15746  272443       0  272443  272443     0.0    0.00  1453.8 18898.8    0.00 18898.8 18898.8    0.00
 1982 169     5       0   15745  272428       0  272428  272428     0.0    0.00  1453.7 18897.8    0.00 18897.8 18897.8    0.00
 1982 170     6       0   15744  272414       0  272414  272414     0.0    0.00  1453.6 18896.8    0.00 18896.8 18896.8    0.00
 1982 171     7       0   15743  272400       0  272400  272400     0.0    0.00  1453.5 18895.8    0.00 18895.8 18895.8    0.00
 1982 172     8       0   15742  272386       0  272386  272386     0.0    0.00  1453.4 18894.8    0.00 18894.8 18894.8    0.00
 1982 173     9       0   15742  272371       0  272371  272371     0.0    0.00  1453.4 18893.8    0.00 18893.8 18893.8    0.00
 1982 174    10       0   15741  272357       0  272357  272357     0.0    0.00  1453.3 18892.9    0.00 18892.9 18892.9    0.00
 1982 175    11       0   15740  272344       0  272344  272344     0.0    0.00  1453.2 18891.9    0.00 18891.9 18891.9    0.00
 1982 176    12       0   15739  272329       0  272329  272329     0.0    0.00  1453.1 18890.9    0.00 18890.9 18890.9    0.00
 1982 177    13       0   15738  272315       0  272315  272315     0.0    0.00  1453.0 18889.9    0.00 18889.9 18889.9    0.00
 1982 178    14       0   15737  272300       0  272300  272300     0.0    0.00  1453.0 18888.9    0.00 18888.9 18888.9    0.00
 1982 179    15       0   15736  272286       0  272286  272286     0.0    0.00  1452.9 18887.9    0.00 18887.9 18887.9    0.00
 1982 180    16       0   15735  272272       0  272272  272272     0.0    0.00  1452.8 18886.9    0.00 18886.9 18886.9    0.00
 1982 181    17       0   15734  272258       0  272258  272258     0.0    0.00  1452.7 18885.9    0.00 18885.9 18885.9    0.00
 1982 182    18       0   15734  272243       0  272243  272243     0.1    0.00  1452.6 18884.9    0.00 18884.9 18884.9    0.00
 1982 183    19       0   15733  272229       0  272229  272229     0.1    0.00  1452.5 18883.9    0.00 18883.9 18883.9    0.00
 1982 184    20       0   15732  272215       0  272215  272214     0.2    0.00  1452.5 18882.9    0.00 18882.9 18882.9    0.01
 1982 185    21       0   15731  272200       0  272200  272200     0.3    0.00  1452.4 18881.9    0.00 18881.9 18881.9    0.01
 1982 186    22       0   15730  272186       0  272186  272186     0.3    0.00  1452.3 18880.9    0.00 18880.9 18880.9    0.01
 1982 187    23       0   15729  272171       0  272171  272171     0.5    0.00  1452.2 18879.9    0.00 18879.9 18879.9    0.02
 1982 188    24       0   15728  272156       0  272156  272156     0.6    0.00  1452.1 18878.8    0.00 18878.8 18878.8    0.02
 1982 189    25       0   15727  272141       0  272141  272141     0.7    0.00  1452.0 18877.8    0.00 18877.8 18877.8    0.03
 1982 190    26       0   15726  272127       0  272127  272126     0.9    0.00  1451.9 18876.8    0.00 18876.8 18876.7    0.03
 1982 191    27       0   15725  272112       0  272112  272111     1.1    0.00  1451.9 18875.7    0.00 18875.7 18875.7    0.04
 1982 192    28       0   15725  272098       0  272098  272097     1.3    0.00  1451.8 18874.8    0.00 18874.8 18874.7    0.05
 1982 193    29       0   15724  272084       0  272084  272083     1.6    0.00  1451.7 18873.8    0.00 18873.8 18873.8    0.05
 1982 194    30       0   15723  272071       0  272071  272069     1.9    0.00  1451.7 18872.9    0.00 18872.9 18872.8    0.06
 1982 195    31       0   15723  272058       0  272058  272056     2.3    0.00  1451.6 18872.0    0.00 18872.0 18871.9    0.08
 1982 196    32       0   15723  272045       0  272045  272043     2.7    0.00  1451.6 18871.1    0.00 18871.1 18871.0    0.09
 1982 197    33       0   15722  272033       0  272033  272030     3.1    0.00  1451.6 18870.3    0.00 18870.3 18870.2    0.10
 1982 198    34       0   15722  272021       0  272021  272018     3.6    0.00  1451.5 18869.5    0.00 18869.5 18869.3    0.12
 1982 199    35       0   15721  272010       0  272010  272006     4.2    0.00  1451.5 18868.7    0.00 18868.7 18868.5    0.14
 1982 200    36       0   15721  271999       0  271999  271994     4.7    0.00  1451.5 18867.9    0.00 18867.9 18867.8    0.15
 1982 201    37       0   15721  271988       0  271988  271983     5.3    0.00  1451.5 18867.2    0.00 18867.2 18867.0    0.17
 1982 202    38       0   15721  271978       0  271978  271972     5.9    0.00  1451.4 18866.4    0.00 18866.4 18866.3    0.19
 1982 203    39       0   15720  271966       0  271966  271960     6.4    0.00  1451.4 18865.7    0.00 18865.7 18865.5    0.20
 1982 204    40       0   15719  271955       0  271955  271949     6.3    0.00  1451.3 18864.9    0.00 18864.9 18864.7    0.20
 1982 205    41       0   15719  271944       0  271944  271937     6.8    0.00  1451.2 18864.1    0.00 18864.1 18863.9    0.22
 1982 206    42       0   15718  271932       0  271932  271925     7.3    0.00  1451.2 18863.3    0.00 18863.3 18863.0    0.23
 1982 207    43       0   15717  271920       0  271920  271913     7.8    0.00  1451.1 18862.4    0.00 18862.4 18862.2    0.25
 1982 208    44       0   15716  271908       0  271908  271900     8.2    0.00  1451.0 18861.6    0.00 18861.6 18861.3    0.26
 1982 209    45       0   15715  271896       0  271896  271887     8.7    0.00  1451.0 18860.7    0.00 18860.7 18860.5    0.28
 1982 210    46       0   15715  271883       0  271883  271874     9.2    0.00  1450.9 18859.8    0.00 18859.8 18859.5    0.29
 1982 211    47       0   15714  271870       0  271870  271861     9.6    0.00  1450.8 18858.9    0.00 18858.9 18858.6    0.31
 1982 212    48       0   15713  271857       0  271857  271847    10.0    0.00  1450.7 18858.0    0.00 18858.0 18857.7    0.32
 1982 213    49       0   15712  271844       0  271844  271833    10.5    0.00  1450.7 18857.0    0.00 18857.0 18856.7    0.34
 1982 214    50       0   15711  271831       0  271831  271820    10.9    0.00  1450.6 18856.1    0.00 18856.1 18855.8    0.35
 1982 215    51       0   15711  271819       0  271819  271808    11.4    0.00  1450.5 18855.3    0.00 18855.3 18854.9    0.37
 1982 216    52       0   15710  271807       0  271807  271795    11.9    0.00  1450.4 18854.4    0.00 18854.4 18854.0    0.38
 1982 217    53       0   15709  271794       0  271794  271782    12.3    0.00  1450.4 18853.5    0.00 18853.5 18853.1    0.40
 1982 218    54       0   15708  271780       0  271780  271769    11.9    0.00  1450.3 18852.6    0.00 18852.6 18852.2    0.39
 1982 219    55       0   15708  271767       0  271767  271755    11.6    0.00  1450.2 18851.7    0.00 18851.7 18851.3    0.39
 1982 220    56       0   15707  271753       0  271753  271742    11.3    0.00  1450.2 18850.7    0.00 18850.7 18850.4    0.38
 1982 221    57       0   15706  271740       0  271740  271729    11.1    0.00  1450.1 18849.8    0.00 18849.8 18849.4    0.38
 1982 222    58       0   15705  271727       0  271727  271716    10.9    0.00  1450.0 18848.9    0.00 18848.9 18848.5    0.37
 1982 223    59       0   15704  271714       0  271714  271703    10.7    0.00  1449.9 18848.0    0.00 18848.0 18847.6    0.37
 1982 224    60       0   15704  271700       0  271700  271690    10.5    0.00  1449.9 18847.1    0.00 18847.1 18846.7    0.36
 1982 225    61       0   15703  271687       0  271687  271677    10.3    0.00  1449.8 18846.2    0.00 18846.2 18845.8    0.36
 1982 226    62       0   15702  271674       0  271674  271663    10.2    0.00  1449.7 18845.3    0.00 18845.3 18844.9    0.36
 1982 227    63       0   15701  271661       0  271661  271650    10.1    0.00  1449.7 18844.4    0.00 18844.4 18844.0    0.35
 1982 228    64       0   15701  271648       0  271648  271638    10.0    0.00  1449.6 18843.5    0.00 18843.5 18843.1    0.35
 1982 229    65       0   15700  271635       0  271635  271625     9.9    0.00  1449.5 18842.6    0.00 18842.6 18842.2    0.35
 1982 230    66       0   15699  271622       0  271622  271612     9.8    0.00  1449.4 18841.7    0.00 18841.7 18841.3    0.34
 1982 231    67       0   15698  271609       0  271609  271599     9.7    0.00  1449.4 18840.8    0.00 18840.8 18840.4    0.34
 1982 232    68       0   15698  271596       0  271596  271586     9.6    0.00  1449.3 18839.9    0.00 18839.9 18839.5    0.34
 1982 233    69       0   15697  271583       0  271583  271573     9.5    0.00  1449.2 18839.0    0.00 18839.0 18838.6    0.34
 1982 234    70       0   15696  271570       0  271570  271560     9.4    0.00  1449.2 18838.1    0.00 18838.1 18837.7    0.33
 1982 235    71       0   15695  271557       0  271557  271547     9.4    0.00  1449.1 18837.2    0.00 18837.2 18836.8    0.33
 1982 236    72       0   15695  271544       0  271544  271534     9.3    0.00  1449.1 18836.3    0.00 18836.3 18836.0    0.33
 1982 237    73       0   15694  271532       0  271532  271521    10.3    0.00  1449.0 18835.4    0.00 18835.4 18835.1    0.35
 1982 238    74       0   15694  271519       0  271519  271508    11.1    0.00  1448.9 18834.5    0.00 18834.5 18834.1    0.38
 1982 239    75       0   15693  271506       0  271506  271494    11.8    0.00  1448.9 18833.6    0.00 18833.6 18833.2    0.40
 1982 240    76       0   15692  271493       0  271493  271481    12.5    0.00  1448.8 18832.7    0.00 18832.7 18832.2    0.42
 1982 241    77       0   15691  271480       0  271480  271467    13.3    0.00  1448.7 18831.7    0.00 18831.7 18831.3    0.45
 1982 242    78       0   15690  271468       0  271468  271453    14.2    0.00  1448.6 18830.8    0.00 18830.8 18830.4    0.48
 1982 243    79       0   15690  271455       0  271455  271440    15.1    0.00  1448.6 18829.9    0.00 18829.9 18829.4    0.51
 1982 244    80       0   15689  271441       0  271441  271425    15.9    0.00  1448.5 18829.0    0.00 18829.0 18828.4    0.54
 1982 245    81       0   15688  271428       0  271428  271411    16.6    0.00  1448.4 18828.0    0.00 18828.0 18827.4    0.57
 1982 246    82       0   15687  271414       0  271414  271397    17.4    0.00  1448.3 18827.0    0.00 18827.0 18826.4    0.59
 1982 247    83       0   15686  271400       0  271400  271382    18.3    0.00  1448.3 18826.0    0.00 18826.0 18825.4    0.62
 1982 248    84       0   15686  271387       0  271387  271368    19.3    0.00  1448.2 18825.1    0.00 18825.1 18824.4    0.65
 1982 249    85       0   15685  271374       0  271374  271354    20.1    0.00  1448.1 18824.2    0.00 18824.2 18823.5    0.68
 1982 250    86       0   15684  271361       0  271361  271340    21.0    0.00  1448.0 18823.2    0.00 18823.2 18822.5    0.71
 1982 251    87       0   15683  271348       0  271348  271326    21.9    0.00  1448.0 18822.3    0.00 18822.3 18821.5    0.75
 1982 252    88       0   15682  271335       0  271335  271312    23.0    0.00  1447.9 18821.3    0.00 18821.3 18820.5    0.78
 1982 253    89       0   15682  271322       0  271322  271298    24.1    0.00  1447.8 18820.4    0.00 18820.4 18819.6    0.82
 1982 254    90       0   15681  271310       0  271310  271284    25.4    0.00  1447.8 18819.5    0.00 18819.5 18818.6    0.86
 1982 255    91       0   15680  271297       0  271297  271271    26.7    0.00  1447.7 18818.6    0.00 18818.6 18817.7    0.90
 1982 256    92       0   15680  271285       0  271285  271257    28.0    0.00  1447.7 18817.8    0.00 18817.8 18816.8    0.94
 1982 257    93       0   15679  271273       0  271273  271244    29.2    0.00  1447.6 18816.9    0.00 18816.9 18815.9    0.98
 1982 258    94       0   15678  271261       0  271261  271231    30.3    0.00  1447.5 18816.0    0.00 18816.0 18815.0    1.01
 1982 259    95       0   15677  271249       0  271249  271217    31.1    0.00  1447.4 18815.1    0.00 18815.1 18814.1    1.04
 1982 260    96       0   15677  271237       0  271237  271204    32.1    0.00  1447.4 18814.2    0.00 18814.2 18813.2    1.07
 1982 261    97       0   15676  271224       0  271224  271191    33.0    0.00  1447.3 18813.4    0.00 18813.4 18812.2    1.11
 1982 262    98       0   15675  271212       0  271212  271178    34.0    0.00  1447.2 18812.5    0.00 18812.5 18811.3    1.14
 1982 263    99       0   15674  271199       0  271199  271164    35.0    0.00  1447.2 18811.6    0.00 18811.6 18810.4    1.18
 1982 264   100       0   15673  271187       0  271187  271151    36.1    0.00  1447.1 18810.7    0.00 18810.7 18809.4    1.21
 1982 265   101       0   15673  271174       0  271174  271137    37.2    0.00  1447.0 18809.7    0.00 18809.7 18808.5    1.25
 1982 266   102       0   15672  271161       0  271161  271123    38.3    0.00  1446.9 18808.8    0.00 18808.8 18807.5    1.29
 1982 267   103       0   15671  271149       0  271149  271110    39.4    0.00  1446.9 18808.0    0.00 18808.0 18806.6    1.33
 1982 268   104       0   15671  271137       0  271137  271097    40.7    0.00  1446.8 18807.1    0.00 18807.1 18805.7    1.37
 1982 269   105       0   15670  271125       0  271125  271083    41.9    0.00  1446.8 18806.2    0.00 18806.2 18804.8    1.41
 1982 270   106       0   15670  271111       0  271111  271070    41.3    0.00  1446.7 18805.3    0.00 18805.3 18803.9    1.40
 1982 271   107       0   15669  271097       0  271097  271057    40.8    0.00  1446.7 18804.4    0.00 18804.4 18803.0    1.39
 1982 272   108       0   15669  271084       0  271084  271044    40.3    0.00  1446.6 18803.5    0.00 18803.5 18802.2    1.38

*DSSAT Cropping System Model Ver. 4.7.5.008 -release  JAN 07, 2021 20:33:24

*RUN   3        : ERiMA DCC1                MZCER047 ETMZmelk    1
 MODEL          : MZCER047 - Maize
 EXPERIMENT     : ETMZmelk SN MELKSSAL
 DATA PATH      : C:\IRI\Python_Dash\ET_DSS_hist\TEST\
 TREATMENT  1   : ERiMA DCC1                MZCER047
  
@YEAR DOY   DAS    OMAC    SCDD    SOCD    SC0D    SCTD   SOMCT    LCTD    ONAC    SNDD    SOND    SN0D    SNTD   SOMNT    LNTD
 1983 164     0       0   15750  272505       0  272505  272505     0.0    0.00  1454.1 18903.2    0.00 18903.2 18903.2    0.00
 1983 165     1       0   15749  272490       0  272490  272490     0.0    0.00  1454.1 18902.1    0.00 18902.1 18902.1    0.00
 1983 166     2       0   15748  272474       0  272474  272474     0.0    0.00  1454.0 18901.0    0.00 18901.0 18901.0    0.00
 1983 167     3       0   15747  272457       0  272457  272457     0.0    0.00  1453.9 18899.8    0.00 18899.8 18899.8    0.00
 1983 168     4       0   15746  272441       0  272441  272441     0.0    0.00  1453.8 18898.7    0.00 18898.7 18898.7    0.00
 1983 169     5       0   15745  272425       0  272425  272425     0.0    0.00  1453.7 18897.6    0.00 18897.6 18897.6    0.00
 1983 170     6       0   15744  272409       0  272409  272409     0.0    0.00  1453.6 18896.5    0.00 18896.5 18896.5    0.00
 1983 171     7       0   15743  272394       0  272394  272394     0.0    0.00  1453.5 18895.4    0.00 18895.4 18895.4    0.00
 1983 172     8       0   15742  272380       0  272380  272380     0.0    0.00  1453.4 18894.4    0.00 18894.4 18894.4    0.00
 1983 173     9       0   15741  272366       0  272366  272366     0.0    0.00  1453.3 18893.4    0.00 18893.4 18893.4    0.00
 1983 174    10       0   15740  272351       0  272351  272351     0.0    0.00  1453.2 18892.4    0.00 18892.4 18892.4    0.00
 1983 175    11       0   15739  272336       0  272336  272336     0.0    0.00  1453.1 18891.4    0.00 18891.4 18891.4    0.00
 1983 176    12       0   15738  272320       0  272320  272320     0.0    0.00  1453.1 18890.3    0.00 18890.3 18890.3    0.00
 1983 177    13       0   15737  272305       0  272305  272305     0.0    0.00  1453.0 18889.2    0.00 18889.2 18889.2    0.00
 1983 178    14       0   15736  272290       0  272290  272290     0.0    0.00  1452.9 18888.1    0.00 18888.1 18888.1    0.00
 1983 179    15       0   15735  272274       0  272274  272274     0.0    0.00  1452.8 18887.1    0.00 18887.1 18887.1    0.00
 1983 180    16       0   15734  272260       0  272260  272260     0.0    0.00  1452.7 18886.1    0.00 18886.1 18886.1    0.00
 1983 181    17       0   15734  272246       0  272246  272246     0.1    0.00  1452.6 18885.1    0.00 18885.1 18885.1    0.00
 1983 182    18       0   15733  272232       0  272232  272232     0.1    0.00  1452.5 18884.1    0.00 18884.1 18884.1    0.00
 1983 183    19       0   15732  272217       0  272217  272217     0.2    0.00  1452.5 18883.1    0.00 18883.1 18883.1    0.01
 1983 184    20       0   15731  272203       0  272203  272202     0.2    0.00  1452.4 18882.1    0.00 18882.1 18882.1    0.01
 1983 185    21       0   15730  272187       0  272187  272187     0.3    0.00  1452.3 18881.0    0.00 18881.0 18881.0    0.01
 1983 186    22       0   15729  272172       0  272172  272172     0.4    0.00  1452.2 18879.9    0.00 18879.9 18879.9    0.01
 1983 187    23       0   15728  272156       0  272156  272156     0.5    0.00  1452.1 18878.8    0.00 18878.8 18878.8    0.02
 1983 188    24       0   15727  272141       0  272141  272140     0.7    0.00  1452.0 18877.8    0.00 18877.8 18877.7    0.02
 1983 189    25       0   15726  272125       0  272125  272124     0.9    0.00  1451.9 18876.7    0.00 18876.7 18876.6    0.03
 1983 190    26       0   15725  272110       0  272110  272109     1.1    0.00  1451.9 18875.6    0.00 18875.6 18875.6    0.04
 1983 191    27       0   15725  272095       0  272095  272094     1.3    0.00  1451.8 18874.6    0.00 18874.6 18874.5    0.05
 1983 192    28       0   15724  272080       0  272080  272078     1.6    0.00  1451.7 18873.5    0.00 18873.5 18873.4    0.06
 1983 193    29       0   15723  272065       0  272065  272063     1.9    0.00  1451.6 18872.4    0.00 18872.4 18872.4    0.07
 1983 194    30       0   15722  272050       0  272050  272047     2.3    0.00  1451.5 18871.4    0.00 18871.4 18871.3    0.08
 1983 195    31       0   15721  272035       0  272035  272033     2.7    0.00  1451.5 18870.4    0.00 18870.4 18870.3    0.09
 1983 196    32       0   15720  272022       0  272022  272019     3.1    0.00  1451.4 18869.4    0.00 18869.4 18869.3    0.10
 1983 197    33       0   15720  272008       0  272008  272005     3.6    0.00  1451.3 18868.5    0.00 18868.5 18868.4    0.12
 1983 198    34       0   15719  271995       0  271995  271991     4.1    0.00  1451.3 18867.5    0.00 18867.5 18867.4    0.13
 1983 199    35       0   15718  271982       0  271982  271978     4.6    0.00  1451.2 18866.7    0.00 18866.7 18866.5    0.15
 1983 200    36       0   15717  271970       0  271970  271965     5.1    0.00  1451.1 18865.8    0.00 18865.8 18865.6    0.16
 1983 201    37       0   15717  271957       0  271957  271952     5.6    0.00  1451.1 18864.9    0.00 18864.9 18864.7    0.18
 1983 202    38       0   15716  271945       0  271945  271939     6.2    0.00  1451.0 18864.0    0.00 18864.0 18863.8    0.19
 1983 203    39       0   15715  271933       0  271933  271926     6.7    0.00  1451.0 18863.2    0.00 18863.2 18863.0    0.21
 1983 204    40       0   15715  271921       0  271921  271913     7.2    0.00  1450.9 18862.3    0.00 18862.3 18862.1    0.22
 1983 205    41       0   15714  271908       0  271908  271900     7.7    0.00  1450.8 18861.4    0.00 18861.4 18861.2    0.24
 1983 206    42       0   15713  271896       0  271896  271887     8.2    0.00  1450.7 18860.5    0.00 18860.5 18860.3    0.26
 1983 207    43       0   15712  271883       0  271883  271874     8.7    0.00  1450.7 18859.6    0.00 18859.6 18859.3    0.27
 1983 208    44       0   15711  271870       0  271870  271860     9.1    0.00  1450.6 18858.7    0.00 18858.7 18858.4    0.29
 1983 209    45       0   15711  271856       0  271856  271847     9.6    0.00  1450.5 18857.8    0.00 18857.8 18857.5    0.30
 1983 210    46       0   15710  271843       0  271843  271833    10.0    0.00  1450.4 18856.8    0.00 18856.8 18856.5    0.32
 1983 211    47       0   15709  271830       0  271830  271820    10.5    0.00  1450.4 18855.9    0.00 18855.9 18855.6    0.34
 1983 212    48       0   15708  271817       0  271817  271806    11.0    0.00  1450.3 18855.0    0.00 18855.0 18854.6    0.35
 1983 213    49       0   15707  271803       0  271803  271793    10.6    0.00  1450.2 18854.1    0.00 18854.1 18853.7    0.35
 1983 214    50       0   15707  271791       0  271791  271779    11.2    0.00  1450.2 18853.2    0.00 18853.2 18852.8    0.36
 1983 215    51       0   15706  271778       0  271778  271766    11.7    0.00  1450.1 18852.3    0.00 18852.3 18851.9    0.38
 1983 216    52       0   15706  271764       0  271764  271753    11.5    0.00  1450.1 18851.4    0.00 18851.4 18851.0    0.38
 1983 217    53       0   15705  271751       0  271751  271740    11.3    0.00  1450.0 18850.5    0.00 18850.5 18850.1    0.38
 1983 218    54       0   15705  271738       0  271738  271727    11.1    0.00  1450.0 18849.6    0.00 18849.6 18849.2    0.37
 1983 219    55       0   15704  271725       0  271725  271714    10.9    0.00  1449.9 18848.7    0.00 18848.7 18848.3    0.37
 1983 220    56       0   15704  271712       0  271712  271702    10.8    0.00  1449.9 18847.9    0.00 18847.9 18847.5    0.37
 1983 221    57       0   15703  271699       0  271699  271689    10.6    0.00  1449.8 18847.0    0.00 18847.0 18846.6    0.36
 1983 222    58       0   15702  271686       0  271686  271676    10.4    0.00  1449.8 18846.1    0.00 18846.1 18845.7    0.36
 1983 223    59       0   15702  271673       0  271673  271663    10.1    0.00  1449.7 18845.2    0.00 18845.2 18844.8    0.35
 1983 224    60       0   15701  271660       0  271660  271650    10.0    0.00  1449.6 18844.3    0.00 18844.3 18843.9    0.35
 1983 225    61       0   15700  271647       0  271647  271637     9.9    0.00  1449.5 18843.4    0.00 18843.4 18843.0    0.35
 1983 226    62       0   15699  271633       0  271633  271624     9.8    0.00  1449.5 18842.4    0.00 18842.4 18842.1    0.35
 1983 227    63       0   15698  271621       0  271621  271611     9.7    0.00  1449.4 18841.6    0.00 18841.6 18841.2    0.34
 1983 228    64       0   15698  271608       0  271608  271599     9.6    0.00  1449.3 18840.7    0.00 18840.7 18840.4    0.34
 1983 229    65       0   15697  271595       0  271595  271586     9.5    0.00  1449.3 18839.8    0.00 18839.8 18839.5    0.34
 1983 230    66       0   15696  271582       0  271582  271573     9.4    0.00  1449.2 18838.9    0.00 18838.9 18838.6    0.34
 1983 231    67       0   15695  271570       0  271570  271560     9.3    0.00  1449.1 18838.0    0.00 18838.0 18837.7    0.33
 1983 232    68       0   15695  271557       0  271557  271548     9.2    0.00  1449.0 18837.2    0.00 18837.2 18836.8    0.33
 1983 233    69       0   15694  271544       0  271544  271535     9.1    0.00  1449.0 18836.2    0.00 18836.2 18835.9    0.33
 1983 234    70       0   15693  271531       0  271531  271522     9.0    0.00  1448.9 18835.3    0.00 18835.3 18835.0    0.33
 1983 235    71       0   15692  271518       0  271518  271508     9.9    0.00  1448.8 18834.4    0.00 18834.4 18834.1    0.34
 1983 236    72       0   15692  271505       0  271505  271495    10.6    0.00  1448.8 18833.5    0.00 18833.5 18833.2    0.37
 1983 237    73       0   15691  271492       0  271492  271482    10.3    0.00  1448.7 18832.6    0.00 18832.6 18832.2    0.36
 1983 238    74       0   15690  271479       0  271479  271468    11.0    0.00  1448.6 18831.7    0.00 18831.7 18831.3    0.38
 1983 239    75       0   15689  271467       0  271467  271455    11.7    0.00  1448.5 18830.8    0.00 18830.8 18830.4    0.40
 1983 240    76       0   15688  271454       0  271454  271441    12.4    0.00  1448.5 18829.9    0.00 18829.9 18829.4    0.43
 1983 241    77       0   15688  271441       0  271441  271428    13.1    0.00  1448.4 18829.0    0.00 18829.0 18828.5    0.45
 1983 242    78       0   15687  271428       0  271428  271414    13.8    0.00  1448.3 18828.0    0.00 18828.0 18827.5    0.48
 1983 243    79       0   15686  271414       0  271414  271400    14.5    0.00  1448.2 18827.0    0.00 18827.0 18826.5    0.50
 1983 244    80       0   15685  271401       0  271401  271385    15.3    0.00  1448.2 18826.1    0.00 18826.1 18825.6    0.52
 1983 245    81       0   15684  271388       0  271388  271372    16.0    0.00  1448.1 18825.1    0.00 18825.1 18824.6    0.55
 1983 246    82       0   15683  271374       0  271374  271358    16.6    0.00  1448.0 18824.2    0.00 18824.2 18823.6    0.57
 1983 247    83       0   15683  271361       0  271361  271344    17.3    0.00  1447.9 18823.3    0.00 18823.3 18822.7    0.60
 1983 248    84       0   15682  271348       0  271348  271330    18.1    0.00  1447.9 18822.3    0.00 18822.3 18821.7    0.62
 1983 249    85       0   15681  271335       0  271335  271316    18.8    0.00  1447.8 18821.4    0.00 18821.4 18820.7    0.65
 1983 250    86       0   15680  271321       0  271321  271302    19.5    0.00  1447.7 18820.4    0.00 18820.4 18819.8    0.67
 1983 251    87       0   15679  271308       0  271308  271288    20.2    0.00  1447.6 18819.5    0.00 18819.5 18818.8    0.70
 1983 252    88       0   15678  271295       0  271295  271274    21.0    0.00  1447.5 18818.6    0.00 18818.6 18817.8    0.73
 1983 253    89       0   15678  271282       0  271282  271261    21.8    0.00  1447.5 18817.7    0.00 18817.7 18816.9    0.75
 1983 254    90       0   15677  271270       0  271270  271247    22.6    0.00  1447.4 18816.8    0.00 18816.8 18816.0    0.78
 1983 255    91       0   15676  271257       0  271257  271234    23.4    0.00  1447.3 18815.9    0.00 18815.9 18815.0    0.81
 1983 256    92       0   15675  271245       0  271245  271220    24.2    0.00  1447.3 18814.9    0.00 18814.9 18814.1    0.83
 1983 257    93       0   15675  271232       0  271232  271207    25.0    0.00  1447.2 18814.0    0.00 18814.0 18813.2    0.86
 1983 258    94       0   15674  271219       0  271219  271193    25.7    0.00  1447.1 18813.1    0.00 18813.1 18812.2    0.89
 1983 259    95       0   15673  271206       0  271206  271179    26.5    0.00  1447.0 18812.2    0.00 18812.2 18811.2    0.91
 1983 260    96       0   15672  271192       0  271192  271165    27.3    0.00  1447.0 18811.2    0.00 18811.2 18810.3    0.94
 1983 261    97       0   15671  271179       0  271179  271151    28.1    0.00  1446.9 18810.3    0.00 18810.3 18809.3    0.97
 1983 262    98       0   15670  271166       0  271166  271137    28.9    0.00  1446.8 18809.3    0.00 18809.3 18808.3    0.99
 1983 263    99       0   15670  271153       0  271153  271124    29.6    0.00  1446.7 18808.4    0.00 18808.4 18807.4    1.02
 1983 264   100       0   15669  271140       0  271140  271110    30.3    0.00  1446.7 18807.5    0.00 18807.5 18806.4    1.04
 1983 265   101       0   15668  271127       0  271127  271096    31.0    0.00  1446.6 18806.6    0.00 18806.6 18805.5    1.06
 1983 266   102       0   15667  271113       0  271113  271083    30.1    0.00  1446.5 18805.6    0.00 18805.6 18804.6    1.05
 1983 267   103       0   15666  271098       0  271098  271069    29.2    0.00  1446.4 18804.6    0.00 18804.6 18803.6    1.03

*DSSAT Cropping System Model Ver. 4.7.5.008 -release  JAN 07, 2021 20:33:24

*RUN   4        : ERiMA DCC1                MZCER047 ETMZmelk    1
 MODEL          : MZCER047 - Maize
 EXPERIMENT     : ETMZmelk SN MELKSSAL
 DATA PATH      : C:\IRI\Python_Dash\ET_DSS_hist\TEST\
 TREATMENT  1   : ERiMA DCC1                MZCER047
  
@YEAR DOY   DAS    OMAC    SCDD    SOCD    SC0D    SCTD   SOMCT    LCTD    ONAC    SNDD    SOND    SN0D    SNTD   SOMNT    LNTD
 1984 164     0       0   15750  272505       0  272505  272505     0.0    0.00  1454.1 18903.2    0.00 18903.2 18903.2    0.00
 1984 165     1       0   15749  272489       0  272489  272489     0.0    0.00  1454.0 18902.0    0.00 18902.0 18902.0    0.00
 1984 166     2       0   15748  272473       0  272473  272473     0.0    0.00  1454.0 18901.0    0.00 18901.0 18901.0    0.00
 1984 167     3       0   15747  272458       0  272458  272458     0.0    0.00  1453.9 18899.9    0.00 18899.9 18899.9    0.00
 1984 168     4       0   15746  272444       0  272444  272444     0.0    0.00  1453.8 18898.9    0.00 18898.9 18898.9    0.00
 1984 169     5       0   15745  272429       0  272429  272429     0.0    0.00  1453.7 18897.9    0.00 18897.9 18897.9    0.00
 1984 170     6       0   15744  272416       0  272416  272416     0.0    0.00  1453.6 18896.9    0.00 18896.9 18896.9    0.00
 1984 171     7       0   15743  272402       0  272402  272402     0.0    0.00  1453.5 18896.0    0.00 18896.0 18896.0    0.00
 1984 172     8       0   15743  272388       0  272388  272388     0.0    0.00  1453.5 18895.0    0.00 18895.0 18895.0    0.00
 1984 173     9       0   15742  272375       0  272375  272375     0.0    0.00  1453.4 18894.1    0.00 18894.1 18894.1    0.00
 1984 174    10       0   15741  272361       0  272361  272361     0.0    0.00  1453.3 18893.1    0.00 18893.1 18893.1    0.00
 1984 175    11       0   15740  272347       0  272347  272347     0.0    0.00  1453.2 18892.2    0.00 18892.2 18892.2    0.00
 1984 176    12       0   15739  272334       0  272334  272334     0.0    0.00  1453.2 18891.2    0.00 18891.2 18891.2    0.00
 1984 177    13       0   15738  272320       0  272320  272320     0.0    0.00  1453.1 18890.3    0.00 18890.3 18890.3    0.00
 1984 178    14       0   15738  272306       0  272306  272306     0.0    0.00  1453.0 18889.3    0.00 18889.3 18889.3    0.00
 1984 179    15       0   15737  272292       0  272292  272292     0.0    0.00  1452.9 18888.3    0.00 18888.3 18888.3    0.00
 1984 180    16       0   15736  272279       0  272279  272279     0.0    0.00  1452.8 18887.4    0.00 18887.4 18887.4    0.00
 1984 181    17       0   15735  272265       0  272265  272265     0.0    0.00  1452.8 18886.4    0.00 18886.4 18886.4    0.00
 1984 182    18       0   15734  272251       0  272251  272251     0.1    0.00  1452.7 18885.5    0.00 18885.5 18885.5    0.00
 1984 183    19       0   15733  272238       0  272238  272238     0.1    0.00  1452.6 18884.5    0.00 18884.5 18884.5    0.00
 1984 184    20       0   15732  272224       0  272224  272224     0.2    0.00  1452.5 18883.6    0.00 18883.6 18883.6    0.01
 1984 185    21       0   15732  272210       0  272210  272210     0.3    0.00  1452.5 18882.6    0.00 18882.6 18882.6    0.01
 1984 186    22       0   15731  272197       0  272197  272197     0.4    0.00  1452.4 18881.7    0.00 18881.7 18881.7    0.01
 1984 187    23       0   15730  272184       0  272184  272184     0.5    0.00  1452.3 18880.8    0.00 18880.8 18880.8    0.02
 1984 188    24       0   15729  272171       0  272171  272171     0.6    0.00  1452.2 18879.9    0.00 18879.9 18879.9    0.02
 1984 189    25       0   15729  272158       0  272158  272157     0.8    0.00  1452.2 18879.0    0.00 18879.0 18879.0    0.03
 1984 190    26       0   15728  272145       0  272145  272144     0.9    0.00  1452.1 18878.1    0.00 18878.1 18878.0    0.03
 1984 191    27       0   15727  272132       0  272132  272130     1.2    0.00  1452.0 18877.1    0.00 18877.1 18877.1    0.04
 1984 192    28       0   15726  272118       0  272118  272117     1.4    0.00  1451.9 18876.2    0.00 18876.2 18876.1    0.05
 1984 193    29       0   15725  272104       0  272104  272103     1.7    0.00  1451.9 18875.2    0.00 18875.2 18875.2    0.06
 1984 194    30       0   15725  272091       0  272091  272089     2.1    0.00  1451.8 18874.3    0.00 18874.3 18874.2    0.07
 1984 195    31       0   15724  272079       0  272079  272076     2.4    0.00  1451.8 18873.4    0.00 18873.4 18873.3    0.08
 1984 196    32       0   15724  272066       0  272066  272063     2.8    0.00  1451.7 18872.5    0.00 18872.5 18872.4    0.09
 1984 197    33       0   15723  272054       0  272054  272051     3.3    0.00  1451.7 18871.7    0.00 18871.7 18871.6    0.11
 1984 198    34       0   15723  272042       0  272042  272038     3.8    0.00  1451.6 18870.9    0.00 18870.9 18870.8    0.13
 1984 199    35       0   15722  272031       0  272031  272026     4.3    0.00  1451.6 18870.1    0.00 18870.1 18869.9    0.14
 1984 200    36       0   15722  272019       0  272019  272014     4.9    0.00  1451.6 18869.3    0.00 18869.3 18869.1    0.16
 1984 201    37       0   15721  272008       0  272008  272002     5.6    0.00  1451.5 18868.5    0.00 18868.5 18868.3    0.18
 1984 202    38       0   15721  271997       0  271997  271991     6.2    0.00  1451.5 18867.7    0.00 18867.7 18867.5    0.20
 1984 203    39       0   15720  271986       0  271986  271979     6.9    0.00  1451.4 18866.9    0.00 18866.9 18866.7    0.22
 1984 204    40       0   15720  271974       0  271974  271967     7.5    0.00  1451.3 18866.1    0.00 18866.1 18865.9    0.24
 1984 205    41       0   15719  271962       0  271962  271954     8.1    0.00  1451.3 18865.3    0.00 18865.3 18865.0    0.26
 1984 206    42       0   15718  271950       0  271950  271941     8.7    0.00  1451.2 18864.4    0.00 18864.4 18864.1    0.28
 1984 207    43       0   15717  271937       0  271937  271928     9.3    0.00  1451.1 18863.5    0.00 18863.5 18863.2    0.30
 1984 208    44       0   15716  271925       0  271925  271915    10.0    0.00  1451.0 18862.6    0.00 18862.6 18862.3    0.31
 1984 209    45       0   15716  271912       0  271912  271901    10.5    0.00  1451.0 18861.7    0.00 18861.7 18861.3    0.33
 1984 210    46       0   15715  271899       0  271899  271888    11.0    0.00  1450.9 18860.8    0.00 18860.8 18860.4    0.35
 1984 211    47       0   15714  271886       0  271886  271875    11.5    0.00  1450.8 18859.8    0.00 18859.8 18859.5    0.37
 1984 212    48       0   15713  271873       0  271873  271861    12.0    0.00  1450.8 18858.9    0.00 18858.9 18858.5    0.39
 1984 213    49       0   15712  271860       0  271860  271848    12.4    0.00  1450.7 18858.0    0.00 18858.0 18857.6    0.41
 1984 214    50       0   15712  271847       0  271847  271834    12.8    0.00  1450.6 18857.1    0.00 18857.1 18856.7    0.42
 1984 215    51       0   15711  271834       0  271834  271821    13.2    0.00  1450.5 18856.2    0.00 18856.2 18855.7    0.44
 1984 216    52       0   15710  271821       0  271821  271807    13.7    0.00  1450.5 18855.2    0.00 18855.2 18854.8    0.46
 1984 217    53       0   15709  271808       0  271808  271794    14.1    0.00  1450.4 18854.3    0.00 18854.3 18853.9    0.48
 1984 218    54       0   15708  271794       0  271794  271781    13.6    0.00  1450.3 18853.4    0.00 18853.4 18853.0    0.47
 1984 219    55       0   15708  271781       0  271781  271767    13.2    0.00  1450.2 18852.5    0.00 18852.5 18852.0    0.46
 1984 220    56       0   15707  271767       0  271767  271754    12.8    0.00  1450.2 18851.6    0.00 18851.6 18851.1    0.45
 1984 221    57       0   15706  271753       0  271753  271741    12.4    0.00  1450.1 18850.6    0.00 18850.6 18850.2    0.44
 1984 222    58       0   15705  271740       0  271740  271728    11.9    0.00  1450.0 18849.7    0.00 18849.7 18849.3    0.43
 1984 223    59       0   15704  271726       0  271726  271714    11.6    0.00  1449.9 18848.8    0.00 18848.8 18848.3    0.43
 1984 224    60       0   15704  271712       0  271712  271701    11.4    0.00  1449.9 18847.8    0.00 18847.8 18847.4    0.42
 1984 225    61       0   15703  271699       0  271699  271688    11.3    0.00  1449.8 18846.9    0.00 18846.9 18846.5    0.42
 1984 226    62       0   15703  271685       0  271685  271674    11.2    0.00  1449.8 18846.0    0.00 18846.0 18845.6    0.42
 1984 227    63       0   15702  271671       0  271671  271660    10.9    0.00  1449.7 18845.0    0.00 18845.0 18844.6    0.41
 1984 228    64       0   15701  271657       0  271657  271646    10.7    0.00  1449.6 18844.1    0.00 18844.1 18843.7    0.40
 1984 229    65       0   15700  271643       0  271643  271633    10.5    0.00  1449.5 18843.1    0.00 18843.1 18842.7    0.40
 1984 230    66       0   15699  271629       0  271629  271619    10.4    0.00  1449.5 18842.1    0.00 18842.1 18841.7    0.39
 1984 231    67       0   15699  271616       0  271616  271605    10.3    0.00  1449.4 18841.2    0.00 18841.2 18840.8    0.39
 1984 232    68       0   15698  271602       0  271602  271592    10.2    0.00  1449.3 18840.3    0.00 18840.3 18839.9    0.39
 1984 233    69       0   15697  271589       0  271589  271579    10.2    0.00  1449.3 18839.4    0.00 18839.4 18839.0    0.39
 1984 234    70       0   15697  271577       0  271577  271567    10.1    0.00  1449.2 18838.5    0.00 18838.5 18838.1    0.39
 1984 235    71       0   15696  271564       0  271564  271554    10.1    0.00  1449.2 18837.7    0.00 18837.7 18837.3    0.39
 1984 236    72       0   15696  271553       0  271553  271542    11.3    0.00  1449.1 18836.9    0.00 18836.9 18836.5    0.41
 1984 237    73       0   15695  271542       0  271542  271529    12.6    0.00  1449.1 18836.1    0.00 18836.1 18835.6    0.45
 1984 238    74       0   15695  271531       0  271531  271517    13.9    0.00  1449.1 18835.3    0.00 18835.3 18834.8    0.48
 1984 239    75       0   15695  271520       0  271520  271505    15.2    0.00  1449.0 18834.5    0.00 18834.5 18834.0    0.52
 1984 240    76       0   15694  271509       0  271509  271493    16.6    0.00  1449.0 18833.7    0.00 18833.7 18833.2    0.56
 1984 241    77       0   15694  271498       0  271498  271480    17.8    0.00  1449.0 18832.9    0.00 18832.9 18832.3    0.60
 1984 242    78       0   15693  271486       0  271486  271467    18.9    0.00  1448.9 18832.1    0.00 18832.1 18831.4    0.63
 1984 243    79       0   15692  271475       0  271475  271455    20.0    0.00  1448.8 18831.2    0.00 18831.2 18830.6    0.67
 1984 244    80       0   15692  271464       0  271464  271442    21.3    0.00  1448.8 18830.4    0.00 18830.4 18829.7    0.70
 1984 245    81       0   15691  271453       0  271453  271430    22.6    0.00  1448.7 18829.6    0.00 18829.6 18828.9    0.74
 1984 246    82       0   15691  271442       0  271442  271418    24.0    0.00  1448.7 18828.9    0.00 18828.9 18828.1    0.78
 1984 247    83       0   15691  271431       0  271431  271406    25.4    0.00  1448.7 18828.1    0.00 18828.1 18827.3    0.82
 1984 248    84       0   15690  271420       0  271420  271394    26.7    0.00  1448.6 18827.3    0.00 18827.3 18826.4    0.86
 1984 249    85       0   15689  271409       0  271409  271381    28.0    0.00  1448.6 18826.5    0.00 18826.5 18825.6    0.90
 1984 250    86       0   15689  271398       0  271398  271369    29.3    0.00  1448.5 18825.7    0.00 18825.7 18824.8    0.94
 1984 251    87       0   15688  271387       0  271387  271356    30.4    0.00  1448.4 18824.9    0.00 18824.9 18823.9    0.98
 1984 252    88       0   15687  271375       0  271375  271344    31.4    0.00  1448.3 18824.0    0.00 18824.0 18823.0    1.01
 1984 253    89       0   15686  271363       0  271363  271331    32.2    0.00  1448.3 18823.2    0.00 18823.2 18822.2    1.04
 1984 254    90       0   15685  271351       0  271351  271318    33.1    0.00  1448.2 18822.4    0.00 18822.4 18821.3    1.07
 1984 255    91       0   15685  271339       0  271339  271305    34.1    0.00  1448.1 18821.5    0.00 18821.5 18820.4    1.11
 1984 256    92       0   15684  271328       0  271328  271293    35.2    0.00  1448.0 18820.7    0.00 18820.7 18819.5    1.15
 1984 257    93       0   15683  271317       0  271317  271281    36.2    0.00  1448.0 18819.9    0.00 18819.9 18818.7    1.18
 1984 258    94       0   15682  271305       0  271305  271268    37.2    0.00  1447.9 18819.0    0.00 18819.0 18817.8    1.21
 1984 259    95       0   15682  271294       0  271294  271256    38.3    0.00  1447.8 18818.2    0.00 18818.2 18817.0    1.25
 1984 260    96       0   15681  271284       0  271284  271244    39.5    0.00  1447.8 18817.5    0.00 18817.5 18816.2    1.29
 1984 261    97       0   15680  271273       0  271273  271232    40.7    0.00  1447.7 18816.7    0.00 18816.7 18815.3    1.33
 1984 262    98       0   15680  271262       0  271262  271220    42.0    0.00  1447.7 18815.9    0.00 18815.9 18814.5    1.37
 1984 263    99       0   15679  271251       0  271251  271208    43.4    0.00  1447.6 18815.1    0.00 18815.1 18813.7    1.41
 1984 264   100       0   15679  271241       0  271241  271196    44.9    0.00  1447.6 18814.3    0.00 18814.3 18812.9    1.45
 1984 265   101       0   15678  271230       0  271230  271184    46.4    0.00  1447.5 18813.6    0.00 18813.6 18812.1    1.50
 1984 266   102       0   15677  271219       0  271219  271172    47.6    0.00  1447.4 18812.8    0.00 18812.8 18811.2    1.53
 1984 267   103       0   15677  271208       0  271208  271160    48.8    0.00  1447.4 18812.0    0.00 18812.0 18810.4    1.57
 1984 268   104       0   15676  271198       0  271198  271148    50.1    0.00  1447.3 18811.2    0.00 18811.2 18809.6    1.61
 1984 269   105       0   15675  271188       0  271188  271137    51.4    0.00  1447.3 18810.5    0.00 18810.5 18808.9    1.65
 1984 270   106       0   15675  271179       0  271179  271126    52.9    0.00  1447.2 18809.8    0.00 18809.8 18808.1    1.70
 1984 271   107       0   15675  271168       0  271168  271115    52.6    0.00  1447.2 18809.1    0.00 18809.1 18807.4    1.69
 1984 272   108       0   15674  271157       0  271157  271105    52.3    0.00  1447.2 18808.4    0.00 18808.4 18806.7    1.69

*DSSAT Cropping System Model Ver. 4.7.5.008 -release  JAN 07, 2021 20:33:24

*RUN   5        : ERiMA DCC1                MZCER047 ETMZmelk    1
 MODEL          : MZCER047 - Maize
 EXPERIMENT     : ETMZmelk SN MELKSSAL
 DATA PATH      : C:\IRI\Python_Dash\ET_DSS_hist\TEST\
 TREATMENT  1   : ERiMA DCC1                MZCER047
  
@YEAR DOY   DAS    OMAC    SCDD    SOCD    SC0D    SCTD   SOMCT    LCTD    ONAC    SNDD    SOND    SN0D    SNTD   SOMNT    LNTD
 1985 164     0       0   15750  272505       0  272505  272505     0.0    0.00  1454.1 18903.2    0.00 18903.2 18903.2    0.00
 1985 165     1       0   15749  272491       0  272491  272491     0.0    0.00  1454.1 18902.2    0.00 18902.2 18902.2    0.00
 1985 166     2       0   15748  272477       0  272477  272477     0.0    0.00  1454.0 18901.2    0.00 18901.2 18901.2    0.00
 1985 167     3       0   15747  272462       0  272462  272462     0.0    0.00  1453.9 18900.1    0.00 18900.1 18900.1    0.00
 1985 168     4       0   15746  272447       0  272447  272447     0.0    0.00  1453.8 18899.1    0.00 18899.1 18899.1    0.00
 1985 169     5       0   15745  272433       0  272433  272433     0.0    0.00  1453.7 18898.1    0.00 18898.1 18898.1    0.00
 1985 170     6       0   15745  272418       0  272418  272418     0.0    0.00  1453.6 18897.1    0.00 18897.1 18897.1    0.00
 1985 171     7       0   15744  272404       0  272404  272404     0.0    0.00  1453.6 18896.1    0.00 18896.1 18896.1    0.00
 1985 172     8       0   15743  272390       0  272390  272390     0.0    0.00  1453.5 18895.1    0.00 18895.1 18895.1    0.00
 1985 173     9       0   15742  272376       0  272376  272376     0.0    0.00  1453.4 18894.2    0.00 18894.2 18894.2    0.00
 1985 174    10       0   15741  272362       0  272362  272362     0.0    0.00  1453.3 18893.2    0.00 18893.2 18893.2    0.00
 1985 175    11       0   15740  272348       0  272348  272348     0.0    0.00  1453.2 18892.2    0.00 18892.2 18892.2    0.00
 1985 176    12       0   15739  272334       0  272334  272334     0.0    0.00  1453.2 18891.2    0.00 18891.2 18891.2    0.00
 1985 177    13       0   15738  272320       0  272320  272320     0.0    0.00  1453.1 18890.3    0.00 18890.3 18890.3    0.00
 1985 178    14       0   15738  272306       0  272306  272306     0.0    0.00  1453.0 18889.3    0.00 18889.3 18889.3    0.00
 1985 179    15       0   15737  272292       0  272292  272292     0.0    0.00  1452.9 18888.3    0.00 18888.3 18888.3    0.00
 1985 180    16       0   15736  272278       0  272278  272278     0.0    0.00  1452.8 18887.3    0.00 18887.3 18887.3    0.00
 1985 181    17       0   15735  272264       0  272264  272264     0.0    0.00  1452.8 18886.3    0.00 18886.3 18886.3    0.00
 1985 182    18       0   15734  272250       0  272250  272250     0.1    0.00  1452.7 18885.4    0.00 18885.4 18885.4    0.00
 1985 183    19       0   15733  272236       0  272236  272236     0.1    0.00  1452.6 18884.4    0.00 18884.4 18884.4    0.00
 1985 184    20       0   15732  272223       0  272223  272222     0.2    0.00  1452.5 18883.5    0.00 18883.5 18883.5    0.01
 1985 185    21       0   15732  272209       0  272209  272209     0.3    0.00  1452.4 18882.5    0.00 18882.5 18882.5    0.01
 1985 186    22       0   15731  272196       0  272196  272196     0.4    0.00  1452.4 18881.6    0.00 18881.6 18881.6    0.01
 1985 187    23       0   15730  272184       0  272184  272183     0.5    0.00  1452.3 18880.8    0.00 18880.8 18880.7    0.02
 1985 188    24       0   15729  272171       0  272171  272170     0.6    0.00  1452.2 18879.9    0.00 18879.9 18879.8    0.02
 1985 189    25       0   15728  272158       0  272158  272157     0.7    0.00  1452.2 18879.0    0.00 18879.0 18878.9    0.02
 1985 190    26       0   15728  272146       0  272146  272145     0.9    0.00  1452.1 18878.1    0.00 18878.1 18878.1    0.03
 1985 191    27       0   15727  272133       0  272133  272132     1.1    0.00  1452.0 18877.2    0.00 18877.2 18877.2    0.04
 1985 192    28       0   15726  272120       0  272120  272119     1.3    0.00  1451.9 18876.3    0.00 18876.3 18876.3    0.04
 1985 193    29       0   15725  272107       0  272107  272106     1.6    0.00  1451.9 18875.4    0.00 18875.4 18875.3    0.05
 1985 194    30       0   15725  272094       0  272094  272093     1.8    0.00  1451.8 18874.5    0.00 18874.5 18874.4    0.06
 1985 195    31       0   15724  272081       0  272081  272079     2.2    0.00  1451.7 18873.6    0.00 18873.6 18873.5    0.07
 1985 196    32       0   15723  272069       0  272069  272066     2.5    0.00  1451.6 18872.7    0.00 18872.7 18872.6    0.08
 1985 197    33       0   15722  272056       0  272056  272053     2.9    0.00  1451.6 18871.8    0.00 18871.8 18871.7    0.10
 1985 198    34       0   15721  272044       0  272044  272040     3.4    0.00  1451.5 18870.9    0.00 18870.9 18870.8    0.11
 1985 199    35       0   15721  272031       0  272031  272027     3.9    0.00  1451.4 18870.0    0.00 18870.0 18869.9    0.13
 1985 200    36       0   15720  272019       0  272019  272014     4.4    0.00  1451.4 18869.1    0.00 18869.1 18869.0    0.14
 1985 201    37       0   15719  272006       0  272006  272001     5.0    0.00  1451.3 18868.2    0.00 18868.2 18868.1    0.16
 1985 202    38       0   15718  271994       0  271994  271988     5.6    0.00  1451.2 18867.4    0.00 18867.4 18867.2    0.18
 1985 203    39       0   15717  271981       0  271981  271975     6.2    0.00  1451.1 18866.5    0.00 18866.5 18866.3    0.20
 1985 204    40       0   15717  271969       0  271969  271962     6.8    0.00  1451.1 18865.6    0.00 18865.6 18865.4    0.22
 1985 205    41       0   15716  271957       0  271957  271949     7.5    0.00  1451.0 18864.7    0.00 18864.7 18864.5    0.24
 1985 206    42       0   15715  271944       0  271944  271936     8.1    0.00  1450.9 18863.8    0.00 18863.8 18863.6    0.26
 1985 207    43       0   15714  271932       0  271932  271923     8.8    0.00  1450.9 18862.9    0.00 18862.9 18862.7    0.28
 1985 208    44       0   15714  271920       0  271920  271910     9.4    0.00  1450.8 18862.1    0.00 18862.1 18861.8    0.30
 1985 209    45       0   15713  271907       0  271907  271898     9.9    0.00  1450.7 18861.2    0.00 18861.2 18860.9    0.31
 1985 210    46       0   15712  271895       0  271895  271885    10.4    0.00  1450.6 18860.3    0.00 18860.3 18860.0    0.33
 1985 211    47       0   15711  271883       0  271883  271872    10.8    0.00  1450.6 18859.5    0.00 18859.5 18859.1    0.35
 1985 212    48       0   15711  271871       0  271871  271859    11.3    0.00  1450.5 18858.6    0.00 18858.6 18858.2    0.37
 1985 213    49       0   15710  271858       0  271858  271846    11.7    0.00  1450.4 18857.7    0.00 18857.7 18857.3    0.38
 1985 214    50       0   15709  271846       0  271846  271834    12.1    0.00  1450.4 18856.8    0.00 18856.8 18856.4    0.40
 1985 215    51       0   15708  271833       0  271833  271821    12.6    0.00  1450.3 18856.0    0.00 18856.0 18855.5    0.42
 1985 216    52       0   15708  271821       0  271821  271807    13.1    0.00  1450.2 18855.1    0.00 18855.1 18854.6    0.44
 1985 217    53       0   15707  271808       0  271808  271794    13.6    0.00  1450.2 18854.2    0.00 18854.2 18853.7    0.45
 1985 218    54       0   15706  271795       0  271795  271782    13.1    0.00  1450.1 18853.3    0.00 18853.3 18852.8    0.45
 1985 219    55       0   15705  271782       0  271782  271768    13.6    0.00  1450.0 18852.4    0.00 18852.4 18851.9    0.46
 1985 220    56       0   15704  271768       0  271768  271755    13.2    0.00  1449.9 18851.5    0.00 18851.5 18851.0    0.45
 1985 221    57       0   15704  271755       0  271755  271742    12.8    0.00  1449.9 18850.6    0.00 18850.6 18850.1    0.45
 1985 222    58       0   15703  271742       0  271742  271729    12.4    0.00  1449.8 18849.6    0.00 18849.6 18849.2    0.44
 1985 223    59       0   15702  271728       0  271728  271716    12.0    0.00  1449.7 18848.7    0.00 18848.7 18848.3    0.43
 1985 224    60       0   15701  271714       0  271714  271703    11.6    0.00  1449.6 18847.8    0.00 18847.8 18847.4    0.42
 1985 225    61       0   15701  271701       0  271701  271690    11.3    0.00  1449.6 18846.9    0.00 18846.9 18846.4    0.41
 1985 226    62       0   15700  271687       0  271687  271676    11.0    0.00  1449.5 18845.9    0.00 18845.9 18845.5    0.41
 1985 227    63       0   15699  271674       0  271674  271663    10.7    0.00  1449.4 18845.0    0.00 18845.0 18844.6    0.40
 1985 228    64       0   15698  271660       0  271660  271650    10.4    0.00  1449.4 18844.1    0.00 18844.1 18843.7    0.39
 1985 229    65       0   15697  271647       0  271647  271637    10.2    0.00  1449.3 18843.2    0.00 18843.2 18842.8    0.39
 1985 230    66       0   15697  271634       0  271634  271624    10.1    0.00  1449.2 18842.3    0.00 18842.3 18841.9    0.38
 1985 231    67       0   15696  271621       0  271621  271611     9.9    0.00  1449.1 18841.4    0.00 18841.4 18841.0    0.38
 1985 232    68       0   15695  271608       0  271608  271598     9.8    0.00  1449.1 18840.5    0.00 18840.5 18840.1    0.38
 1985 233    69       0   15694  271595       0  271595  271585     9.7    0.00  1449.0 18839.6    0.00 18839.6 18839.2    0.37
 1985 234    70       0   15694  271582       0  271582  271572     9.6    0.00  1448.9 18838.7    0.00 18838.7 18838.3    0.37
 1985 235    71       0   15693  271568       0  271568  271559     9.4    0.00  1448.9 18837.8    0.00 18837.8 18837.4    0.36
 1985 236    72       0   15692  271555       0  271555  271546     9.3    0.00  1448.8 18836.8    0.00 18836.8 18836.5    0.36
 1985 237    73       0   15691  271542       0  271542  271533     9.2    0.00  1448.7 18835.9    0.00 18835.9 18835.5    0.36
 1985 238    74       0   15691  271528       0  271528  271519     9.1    0.00  1448.7 18835.0    0.00 18835.0 18834.6    0.35
 1985 239    75       0   15690  271515       0  271515  271506     9.1    0.00  1448.6 18834.1    0.00 18834.1 18833.7    0.35
 1985 240    76       0   15689  271503       0  271503  271493    10.3    0.00  1448.5 18833.2    0.00 18833.2 18832.8    0.38
 1985 241    77       0   15689  271492       0  271492  271481    11.4    0.00  1448.5 18832.4    0.00 18832.4 18832.0    0.41
 1985 242    78       0   15688  271480       0  271480  271468    12.4    0.00  1448.4 18831.5    0.00 18831.5 18831.1    0.44
 1985 243    79       0   15687  271468       0  271468  271455    13.4    0.00  1448.3 18830.7    0.00 18830.7 18830.2    0.47
 1985 244    80       0   15686  271457       0  271457  271442    14.4    0.00  1448.3 18829.8    0.00 18829.8 18829.3    0.50
 1985 245    81       0   15686  271445       0  271445  271430    15.3    0.00  1448.2 18829.0    0.00 18829.0 18828.4    0.53
 1985 246    82       0   15685  271433       0  271433  271417    16.3    0.00  1448.1 18828.1    0.00 18828.1 18827.6    0.56
 1985 247    83       0   15684  271421       0  271421  271404    17.2    0.00  1448.1 18827.2    0.00 18827.2 18826.7    0.59
 1985 248    84       0   15683  271409       0  271409  271391    18.2    0.00  1448.0 18826.4    0.00 18826.4 18825.7    0.62
 1985 249    85       0   15683  271396       0  271396  271377    19.3    0.00  1447.9 18825.4    0.00 18825.4 18824.8    0.65
 1985 250    86       0   15682  271383       0  271383  271363    20.2    0.00  1447.8 18824.5    0.00 18824.5 18823.8    0.68
 1985 251    87       0   15681  271370       0  271370  271349    21.2    0.00  1447.8 18823.6    0.00 18823.6 18822.8    0.72
 1985 252    88       0   15680  271357       0  271357  271335    22.1    0.00  1447.7 18822.6    0.00 18822.6 18821.9    0.75
 1985 253    89       0   15679  271344       0  271344  271321    23.0    0.00  1447.6 18821.7    0.00 18821.7 18820.9    0.78
 1985 254    90       0   15678  271331       0  271331  271307    23.9    0.00  1447.5 18820.7    0.00 18820.7 18819.9    0.81
 1985 255    91       0   15678  271318       0  271318  271293    24.7    0.00  1447.5 18819.8    0.00 18819.8 18818.9    0.84
 1985 256    92       0   15677  271305       0  271305  271279    25.6    0.00  1447.4 18818.9    0.00 18818.9 18818.0    0.87
 1985 257    93       0   15676  271292       0  271292  271266    26.5    0.00  1447.3 18818.0    0.00 18818.0 18817.1    0.90
 1985 258    94       0   15675  271280       0  271280  271252    27.5    0.00  1447.2 18817.0    0.00 18817.0 18816.1    0.93
 1985 259    95       0   15674  271267       0  271267  271239    28.5    0.00  1447.2 18816.2    0.00 18816.2 18815.2    0.96
 1985 260    96       0   15674  271254       0  271254  271225    29.4    0.00  1447.1 18815.2    0.00 18815.2 18814.2    1.00
 1985 261    97       0   15673  271241       0  271241  271211    30.3    0.00  1447.0 18814.3    0.00 18814.3 18813.3    1.03
 1985 262    98       0   15672  271228       0  271228  271197    31.2    0.00  1446.9 18813.4    0.00 18813.4 18812.3    1.06
 1985 263    99       0   15671  271216       0  271216  271184    32.1    0.00  1446.9 18812.5    0.00 18812.5 18811.4    1.09
 1985 264   100       0   15670  271203       0  271203  271170    33.1    0.00  1446.8 18811.5    0.00 18811.5 18810.4    1.12
 1985 265   101       0   15670  271191       0  271191  271157    34.0    0.00  1446.7 18810.6    0.00 18810.6 18809.5    1.15
 1985 266   102       0   15669  271178       0  271178  271143    34.9    0.00  1446.6 18809.8    0.00 18809.8 18808.6    1.18
 1985 267   103       0   15668  271166       0  271166  271130    35.7    0.00  1446.6 18808.9    0.00 18808.9 18807.7    1.21
 1985 268   104       0   15667  271153       0  271153  271117    36.6    0.00  1446.5 18808.0    0.00 18808.0 18806.7    1.24
 1985 269   105       0   15666  271141       0  271141  271104    37.5    0.00  1446.4 18807.1    0.00 18807.1 18805.8    1.28
 1985 270   106       0   15666  271129       0  271129  271090    38.5    0.00  1446.4 18806.2    0.00 18806.2 18804.9    1.31
 1985 271   107       0   15665  271117       0  271117  271078    39.5    0.00  1446.3 18805.4    0.00 18805.4 18804.0    1.34
 1985 272   108       0   15664  271105       0  271105  271065    40.5    0.00  1446.2 18804.5    0.00 18804.5 18803.2    1.38
 1985 273   109       0   15664  271094       0  271094  271053    41.6    0.00  1446.2 18803.7    0.00 18803.7 18802.3    1.41
 1985 274   110       0   15663  271083       0  271083  271040    42.7    0.00  1446.1 18802.9    0.00 18802.9 18801.5    1.45
 1985 275   111       0   15662  271072       0  271072  271028    43.9    0.00  1446.1 18802.1    0.00 18802.1 18800.6    1.49
 1985 276   112       0   15662  271059       0  271059  271016    43.2    0.00  1446.0 18801.3    0.00 18801.3 18799.8    1.47
 1985 277   113       0   15661  271046       0  271046  271004    42.6    0.00  1446.0 18800.4    0.00 18800.4 18799.0    1.46

*DSSAT Cropping System Model Ver. 4.7.5.008 -release  JAN 07, 2021 20:33:24

*RUN   6        : ERiMA DCC1                MZCER047 ETMZmelk    1
 MODEL          : MZCER047 - Maize
 EXPERIMENT     : ETMZmelk SN MELKSSAL
 DATA PATH      : C:\IRI\Python_Dash\ET_DSS_hist\TEST\
 TREATMENT  1   : ERiMA DCC1                MZCER047
  
@YEAR DOY   DAS    OMAC    SCDD    SOCD    SC0D    SCTD   SOMCT    LCTD    ONAC    SNDD    SOND    SN0D    SNTD   SOMNT    LNTD
 1986 164     0       0   15750  272505       0  272505  272505     0.0    0.00  1454.1 18903.2    0.00 18903.2 18903.2    0.00
 1986 165     1       0   15749  272491       0  272491  272491     0.0    0.00  1454.1 18902.2    0.00 18902.2 18902.2    0.00
 1986 166     2       0   15748  272477       0  272477  272477     0.0    0.00  1454.0 18901.2    0.00 18901.2 18901.2    0.00
 1986 167     3       0   15747  272463       0  272463  272463     0.0    0.00  1453.9 18900.2    0.00 18900.2 18900.2    0.00
 1986 168     4       0   15746  272448       0  272448  272448     0.0    0.00  1453.8 18899.2    0.00 18899.2 18899.2    0.00
 1986 169     5       0   15746  272434       0  272434  272434     0.0    0.00  1453.7 18898.2    0.00 18898.2 18898.2    0.00
 1986 170     6       0   15745  272420       0  272420  272420     0.0    0.00  1453.7 18897.2    0.00 18897.2 18897.2    0.00
 1986 171     7       0   15744  272406       0  272406  272406     0.0    0.00  1453.6 18896.3    0.00 18896.3 18896.3    0.00
 1986 172     8       0   15743  272392       0  272392  272392     0.0    0.00  1453.5 18895.3    0.00 18895.3 18895.3    0.00
 1986 173     9       0   15742  272378       0  272378  272378     0.0    0.00  1453.4 18894.3    0.00 18894.3 18894.3    0.00
 1986 174    10       0   15741  272365       0  272365  272365     0.0    0.00  1453.3 18893.4    0.00 18893.4 18893.4    0.00
 1986 175    11       0   15740  272351       0  272351  272351     0.0    0.00  1453.3 18892.5    0.00 18892.5 18892.5    0.00
 1986 176    12       0   15740  272338       0  272338  272338     0.0    0.00  1453.2 18891.5    0.00 18891.5 18891.5    0.00
 1986 177    13       0   15739  272325       0  272325  272325     0.0    0.00  1453.1 18890.6    0.00 18890.6 18890.6    0.00
 1986 178    14       0   15738  272311       0  272311  272311     0.0    0.00  1453.0 18889.7    0.00 18889.7 18889.7    0.00
 1986 179    15       0   15737  272298       0  272298  272298     0.0    0.00  1453.0 18888.7    0.00 18888.7 18888.7    0.00
 1986 180    16       0   15736  272284       0  272284  272284     0.0    0.00  1452.9 18887.8    0.00 18887.8 18887.8    0.00
 1986 181    17       0   15735  272271       0  272271  272271     0.0    0.00  1452.8 18886.8    0.00 18886.8 18886.8    0.00
 1986 182    18       0   15735  272258       0  272258  272257     0.1    0.00  1452.7 18885.9    0.00 18885.9 18885.9    0.00
 1986 183    19       0   15734  272244       0  272244  272244     0.1    0.00  1452.7 18885.0    0.00 18885.0 18885.0    0.00
 1986 184    20       0   15733  272231       0  272231  272231     0.2    0.00  1452.6 18884.1    0.00 18884.1 18884.1    0.01
 1986 185    21       0   15732  272218       0  272218  272217     0.2    0.00  1452.5 18883.1    0.00 18883.1 18883.1    0.01
 1986 186    22       0   15731  272204       0  272204  272204     0.3    0.00  1452.4 18882.2    0.00 18882.2 18882.2    0.01
 1986 187    23       0   15731  272191       0  272191  272190     0.4    0.00  1452.4 18881.3    0.00 18881.3 18881.2    0.01
 1986 188    24       0   15730  272177       0  272177  272176     0.5    0.00  1452.3 18880.3    0.00 18880.3 18880.3    0.02
 1986 189    25       0   15729  272163       0  272163  272163     0.6    0.00  1452.2 18879.3    0.00 18879.3 18879.3    0.02
 1986 190    26       0   15728  272149       0  272149  272149     0.7    0.00  1452.1 18878.4    0.00 18878.4 18878.4    0.03
 1986 191    27       0   15727  272136       0  272136  272135     0.9    0.00  1452.1 18877.4    0.00 18877.4 18877.4    0.03
 1986 192    28       0   15727  272122       0  272122  272121     1.1    0.00  1452.0 18876.5    0.00 18876.5 18876.4    0.04
 1986 193    29       0   15726  272109       0  272109  272107     1.4    0.00  1451.9 18875.5    0.00 18875.5 18875.5    0.05
 1986 194    30       0   15725  272095       0  272095  272093     1.7    0.00  1451.8 18874.6    0.00 18874.6 18874.5    0.06
 1986 195    31       0   15724  272081       0  272081  272079     2.0    0.00  1451.8 18873.6    0.00 18873.6 18873.5    0.07
 1986 196    32       0   15723  272068       0  272068  272065     2.4    0.00  1451.7 18872.6    0.00 18872.6 18872.6    0.08
 1986 197    33       0   15722  272054       0  272054  272051     2.8    0.00  1451.6 18871.7    0.00 18871.7 18871.6    0.09
 1986 198    34       0   15722  272041       0  272041  272038     3.2    0.00  1451.5 18870.8    0.00 18870.8 18870.7    0.11
 1986 199    35       0   15721  272028       0  272028  272024     3.7    0.00  1451.4 18869.8    0.00 18869.8 18869.7    0.12
 1986 200    36       0   15720  272015       0  272015  272010     4.2    0.00  1451.4 18868.9    0.00 18868.9 18868.7    0.14
 1986 201    37       0   15719  272001       0  272001  271997     4.8    0.00  1451.3 18867.9    0.00 18867.9 18867.8    0.16
 1986 202    38       0   15718  271988       0  271988  271983     5.4    0.00  1451.2 18867.0    0.00 18867.0 18866.8    0.18
 1986 203    39       0   15717  271975       0  271975  271969     5.9    0.00  1451.1 18866.1    0.00 18866.1 18865.9    0.19
 1986 204    40       0   15717  271962       0  271962  271956     6.5    0.00  1451.1 18865.2    0.00 18865.2 18865.0    0.21
 1986 205    41       0   15716  271950       0  271950  271943     7.1    0.00  1451.0 18864.3    0.00 18864.3 18864.0    0.23
 1986 206    42       0   15715  271937       0  271937  271929     7.7    0.00  1450.9 18863.4    0.00 18863.4 18863.1    0.24
 1986 207    43       0   15714  271925       0  271925  271916     8.3    0.00  1450.8 18862.5    0.00 18862.5 18862.2    0.26
 1986 208    44       0   15713  271913       0  271913  271904     8.9    0.00  1450.8 18861.6    0.00 18861.6 18861.3    0.28
 1986 209    45       0   15713  271900       0  271900  271891     9.4    0.00  1450.7 18860.7    0.00 18860.7 18860.5    0.29
 1986 210    46       0   15712  271888       0  271888  271878     9.8    0.00  1450.6 18859.9    0.00 18859.9 18859.6    0.31
 1986 211    47       0   15711  271876       0  271876  271865    10.3    0.00  1450.6 18859.0    0.00 18859.0 18858.7    0.33
 1986 212    48       0   15710  271863       0  271863  271852    10.6    0.00  1450.5 18858.1    0.00 18858.1 18857.8    0.34
 1986 213    49       0   15710  271850       0  271850  271839    11.0    0.00  1450.4 18857.2    0.00 18857.2 18856.8    0.36
 1986 214    50       0   15709  271837       0  271837  271825    11.4    0.00  1450.3 18856.3    0.00 18856.3 18855.9    0.37
 1986 215    51       0   15708  271824       0  271824  271812    11.9    0.00  1450.3 18855.4    0.00 18855.4 18855.0    0.39
 1986 216    52       0   15707  271811       0  271811  271798    12.3    0.00  1450.2 18854.4    0.00 18854.4 18854.0    0.41
 1986 217    53       0   15707  271798       0  271798  271785    12.8    0.00  1450.1 18853.5    0.00 18853.5 18853.1    0.43
 1986 218    54       0   15706  271785       0  271785  271772    13.3    0.00  1450.1 18852.6    0.00 18852.6 18852.2    0.44
 1986 219    55       0   15705  271772       0  271772  271759    13.9    0.00  1450.0 18851.7    0.00 18851.7 18851.3    0.46
 1986 220    56       0   15705  271760       0  271760  271746    13.6    0.00  1450.0 18850.9    0.00 18850.9 18850.4    0.46
 1986 221    57       0   15704  271747       0  271747  271733    13.4    0.00  1449.9 18850.0    0.00 18850.0 18849.6    0.46
[...]
 2014 296   132       0   15644  270788       0  270788  270721    66.7    0.00  1444.4 18781.3    0.00 18781.3 18779.3    1.99
 2014 297   133       0   15644  270773       0  270773  270705    67.8    0.00  1444.3 18780.3    0.00 18780.3 18778.3    2.02
 2014 298   134       0   15643  270759       0  270759  270690    69.0    0.00  1444.2 18779.3    0.00 18779.3 18777.2    2.06
 2014 299   135       0   15642  270745       0  270745  270675    70.4    0.00  1444.2 18778.3    0.00 18778.3 18776.2    2.10
 2014 300   136       0   15641  270732       0  270732  270660    71.9    0.00  1444.1 18777.3    0.00 18777.3 18775.1    2.14
 2014 301   137       0   15640  270718       0  270718  270645    73.5    0.00  1444.0 18776.3    0.00 18776.3 18774.1    2.18
 2014 302   138       0   15640  270702       0  270702  270630    71.9    0.00  1444.0 18775.3    0.00 18775.3 18773.1    2.17
 2014 303   139       0   15639  270686       0  270686  270616    70.6    0.00  1443.9 18774.3    0.00 18774.3 18772.1    2.15
 2014 304   140       0   15638  270672       0  270672  270602    69.5    0.00  1443.9 18773.3    0.00 18773.3 18771.2    2.14
 2014 305   141       0   15638  270658       0  270658  270590    68.5    0.00  1443.8 18772.5    0.00 18772.5 18770.4    2.13

*DSSAT Cropping System Model Ver. 4.7.5.008 -release  JAN 07, 2021 20:33:40

*RUN  70        : ERiMA DCC1                MZCER047 ETMZbako    1
 MODEL          : MZCER047 - Maize
 EXPERIMENT     : ETMZbako SN MELKSSAL
 DATA PATH      : C:\IRI\Python_Dash\ET_DSS_hist\TEST\
 TREATMENT  1   : ERiMA DCC1                MZCER047
  
@YEAR DOY   DAS    OMAC    SCDD    SOCD    SC0D    SCTD   SOMCT    LCTD    ONAC    SNDD    SOND    SN0D    SNTD   SOMNT    LNTD
 2015 164     0       0   15750  272505       0  272505  272505     0.0    0.00  1454.1 18903.2    0.00 18903.2 18903.2    0.00
 2015 165     1       0   15749  272490       0  272490  272490     0.0    0.00  1454.1 18902.1    0.00 18902.1 18902.1    0.00
 2015 166     2       0   15748  272475       0  272475  272475     0.0    0.00  1454.0 18901.1    0.00 18901.1 18901.1    0.00
 2015 167     3       0   15747  272460       0  272460  272460     0.0    0.00  1453.9 18900.1    0.00 18900.1 18900.1    0.00
 2015 168     4       0   15746  272446       0  272446  272446     0.0    0.00  1453.8 18899.0    0.00 18899.0 18899.0    0.00
 2015 169     5       0   15745  272431       0  272431  272431     0.0    0.00  1453.7 18898.0    0.00 18898.0 18898.0    0.00
 2015 170     6       0   15744  272417       0  272417  272417     0.0    0.00  1453.6 18897.0    0.00 18897.0 18897.0    0.00
 2015 171     7       0   15744  272401       0  272401  272401     0.0    0.00  1453.5 18895.9    0.00 18895.9 18895.9    0.00
 2015 172     8       0   15743  272386       0  272386  272386     0.0    0.00  1453.5 18894.9    0.00 18894.9 18894.9    0.00
 2015 173     9       0   15742  272371       0  272371  272371     0.0    0.00  1453.4 18893.8    0.00 18893.8 18893.8    0.00
 2015 174    10       0   15741  272355       0  272355  272355     0.0    0.00  1453.3 18892.7    0.00 18892.7 18892.7    0.00
 2015 175    11       0   15740  272340       0  272340  272340     0.0    0.00  1453.2 18891.7    0.00 18891.7 18891.7    0.00
 2015 176    12       0   15739  272324       0  272324  272324     0.0    0.00  1453.1 18890.6    0.00 18890.6 18890.6    0.00
 2015 177    13       0   15738  272309       0  272309  272309     0.0    0.00  1453.0 18889.5    0.00 18889.5 18889.5    0.00
 2015 178    14       0   15737  272293       0  272293  272293     0.0    0.00  1452.9 18888.4    0.00 18888.4 18888.4    0.00
 2015 179    15       0   15736  272278       0  272278  272278     0.1    0.00  1452.8 18887.3    0.00 18887.3 18887.3    0.00
 2015 180    16       0   15735  272263       0  272263  272263     0.1    0.00  1452.7 18886.3    0.00 18886.3 18886.3    0.00
 2015 181    17       0   15734  272248       0  272248  272248     0.2    0.00  1452.7 18885.3    0.00 18885.3 18885.3    0.01
 2015 182    18       0   15733  272234       0  272234  272234     0.2    0.00  1452.6 18884.3    0.00 18884.3 18884.3    0.01
 2015 183    19       0   15732  272220       0  272220  272219     0.3    0.00  1452.5 18883.3    0.00 18883.3 18883.3    0.01
 2015 184    20       0   15731  272206       0  272206  272205     0.3    0.00  1452.4 18882.3    0.00 18882.3 18882.3    0.01
 2015 185    21       0   15730  272192       0  272192  272191     0.4    0.00  1452.3 18881.3    0.00 18881.3 18881.3    0.01
 2015 186    22       0   15730  272178       0  272178  272177     0.5    0.00  1452.3 18880.3    0.00 18880.3 18880.3    0.02
 2015 187    23       0   15729  272164       0  272164  272163     0.6    0.00  1452.2 18879.4    0.00 18879.4 18879.4    0.02
 2015 188    24       0   15728  272150       0  272150  272150     0.7    0.00  1452.1 18878.4    0.00 18878.4 18878.4    0.02
 2015 189    25       0   15727  272137       0  272137  272136     0.9    0.00  1452.0 18877.5    0.00 18877.5 18877.4    0.03
 2015 190    26       0   15726  272123       0  272123  272122     1.0    0.00  1451.9 18876.5    0.00 18876.5 18876.5    0.03
 2015 191    27       0   15725  272110       0  272110  272109     1.2    0.00  1451.9 18875.6    0.00 18875.6 18875.6    0.04
 2015 192    28       0   15725  272097       0  272097  272096     1.4    0.00  1451.8 18874.7    0.00 18874.7 18874.7    0.05
 2015 193    29       0   15724  272085       0  272085  272083     1.6    0.00  1451.7 18873.9    0.00 18873.9 18873.8    0.05
 2015 194    30       0   15723  272073       0  272073  272071     1.9    0.00  1451.7 18873.0    0.00 18873.0 18872.9    0.06
 2015 195    31       0   15722  272061       0  272061  272058     2.2    0.00  1451.6 18872.1    0.00 18872.1 18872.1    0.07
 2015 196    32       0   15722  272049       0  272049  272046     2.5    0.00  1451.5 18871.3    0.00 18871.3 18871.2    0.08
 2015 197    33       0   15721  272037       0  272037  272034     2.8    0.00  1451.5 18870.4    0.00 18870.4 18870.4    0.09
 2015 198    34       0   15720  272025       0  272025  272022     3.1    0.00  1451.4 18869.6    0.00 18869.6 18869.5    0.10
 2015 199    35       0   15720  272013       0  272013  272010     3.4    0.00  1451.3 18868.8    0.00 18868.8 18868.7    0.11
 2015 200    36       0   15719  272001       0  272001  271997     3.8    0.00  1451.3 18867.9    0.00 18867.9 18867.8    0.12
 2015 201    37       0   15718  271989       0  271989  271984     4.2    0.00  1451.2 18867.0    0.00 18867.0 18866.9    0.13
 2015 202    38       0   15717  271976       0  271976  271971     4.6    0.00  1451.1 18866.2    0.00 18866.2 18866.0    0.14
 2015 203    39       0   15716  271963       0  271963  271958     5.1    0.00  1451.0 18865.2    0.00 18865.2 18865.1    0.15
 2015 204    40       0   15716  271950       0  271950  271944     5.5    0.00  1451.0 18864.3    0.00 18864.3 18864.1    0.17
 2015 205    41       0   15715  271937       0  271937  271931     6.1    0.00  1450.9 18863.4    0.00 18863.4 18863.2    0.18
 2015 206    42       0   15714  271924       0  271924  271918     6.6    0.00  1450.8 18862.5    0.00 18862.5 18862.3    0.19
 2015 207    43       0   15713  271911       0  271911  271904     7.1    0.00  1450.8 18861.5    0.00 18861.5 18861.3    0.21
 2015 208    44       0   15712  271898       0  271898  271891     7.6    0.00  1450.7 18860.6    0.00 18860.6 18860.4    0.22
 2015 209    45       0   15712  271885       0  271885  271877     8.1    0.00  1450.6 18859.7    0.00 18859.7 18859.5    0.23
 2015 210    46       0   15711  271872       0  271872  271864     8.7    0.00  1450.5 18858.8    0.00 18858.8 18858.5    0.25
 2015 211    47       0   15710  271859       0  271859  271850     9.2    0.00  1450.5 18857.9    0.00 18857.9 18857.6    0.26
 2015 212    48       0   15709  271846       0  271846  271837     9.8    0.00  1450.4 18856.9    0.00 18856.9 18856.7    0.27
 2015 213    49       0   15708  271833       0  271833  271823    10.4    0.00  1450.3 18856.0    0.00 18856.0 18855.7    0.29
 2015 214    50       0   15708  271820       0  271820  271809    10.9    0.00  1450.2 18855.0    0.00 18855.0 18854.7    0.30
 2015 215    51       0   15707  271806       0  271806  271794    11.4    0.00  1450.1 18854.0    0.00 18854.0 18853.7    0.32
 2015 216    52       0   15706  271792       0  271792  271780    11.9    0.00  1450.1 18853.1    0.00 18853.1 18852.7    0.34
 2015 217    53       0   15705  271778       0  271778  271766    12.4    0.00  1450.0 18852.1    0.00 18852.1 18851.7    0.36
 2015 218    54       0   15704  271765       0  271765  271752    12.8    0.00  1449.9 18851.1    0.00 18851.1 18850.8    0.38
 2015 219    55       0   15703  271752       0  271752  271739    13.1    0.00  1449.8 18850.2    0.00 18850.2 18849.8    0.40
 2015 220    56       0   15703  271739       0  271739  271726    13.6    0.00  1449.8 18849.4    0.00 18849.4 18849.0    0.41
 2015 221    57       0   15702  271728       0  271728  271714    14.0    0.00  1449.7 18848.5    0.00 18848.5 18848.1    0.43
 2015 222    58       0   15701  271716       0  271716  271702    14.5    0.00  1449.6 18847.7    0.00 18847.7 18847.3    0.45
 2015 223    59       0   15700  271705       0  271705  271690    15.0    0.00  1449.6 18846.9    0.00 18846.9 18846.5    0.46
 2015 224    60       0   15700  271693       0  271693  271678    15.6    0.00  1449.5 18846.1    0.00 18846.1 18845.6    0.48
 2015 225    61       0   15699  271682       0  271682  271666    16.1    0.00  1449.4 18845.3    0.00 18845.3 18844.8    0.50
 2015 226    62       0   15698  271670       0  271670  271654    16.7    0.00  1449.4 18844.5    0.00 18844.5 18843.9    0.52
 2015 227    63       0   15698  271659       0  271659  271642    17.3    0.00  1449.3 18843.7    0.00 18843.7 18843.1    0.53
 2015 228    64       0   15697  271647       0  271647  271630    17.9    0.00  1449.3 18842.8    0.00 18842.8 18842.3    0.55
 2015 229    65       0   15696  271636       0  271636  271618    18.5    0.00  1449.2 18842.0    0.00 18842.0 18841.5    0.57
 2015 230    66       0   15696  271625       0  271625  271606    19.2    0.00  1449.1 18841.2    0.00 18841.2 18840.6    0.58
 2015 231    67       0   15695  271614       0  271614  271594    19.9    0.00  1449.1 18840.4    0.00 18840.4 18839.8    0.60
 2015 232    68       0   15694  271603       0  271603  271583    20.6    0.00  1449.0 18839.6    0.00 18839.6 18839.0    0.62
 2015 233    69       0   15694  271592       0  271592  271571    21.3    0.00  1448.9 18838.8    0.00 18838.8 18838.2    0.63
 2015 234    70       0   15693  271581       0  271581  271559    22.0    0.00  1448.9 18838.0    0.00 18838.0 18837.4    0.65
 2015 235    71       0   15692  271569       0  271569  271546    22.7    0.00  1448.8 18837.2    0.00 18837.2 18836.5    0.67
 2015 236    72       0   15692  271557       0  271557  271534    23.3    0.00  1448.8 18836.4    0.00 18836.4 18835.7    0.69
 2015 237    73       0   15691  271546       0  271546  271522    23.8    0.00  1448.7 18835.5    0.00 18835.5 18834.8    0.71
 2015 238    74       0   15690  271534       0  271534  271509    24.4    0.00  1448.6 18834.7    0.00 18834.7 18834.0    0.72
 2015 239    75       0   15690  271522       0  271522  271497    24.9    0.00  1448.6 18833.9    0.00 18833.9 18833.1    0.74
 2015 240    76       0   15689  271510       0  271510  271485    25.4    0.00  1448.5 18833.0    0.00 18833.0 18832.3    0.76
 2015 241    77       0   15688  271498       0  271498  271472    25.9    0.00  1448.4 18832.2    0.00 18832.2 18831.4    0.77
 2015 242    78       0   15687  271486       0  271486  271460    26.4    0.00  1448.4 18831.3    0.00 18831.3 18830.5    0.79
 2015 243    79       0   15687  271474       0  271474  271447    26.9    0.00  1448.3 18830.5    0.00 18830.5 18829.7    0.81
 2015 244    80       0   15686  271462       0  271462  271435    27.5    0.00  1448.2 18829.6    0.00 18829.6 18828.8    0.83
 2015 245    81       0   15685  271450       0  271450  271422    27.9    0.00  1448.2 18828.8    0.00 18828.8 18827.9    0.84
 2015 246    82       0   15684  271437       0  271437  271409    28.4    0.00  1448.1 18827.9    0.00 18827.9 18827.0    0.86
 2015 247    83       0   15684  271424       0  271424  271395    28.8    0.00  1448.0 18826.9    0.00 18826.9 18826.1    0.87
 2015 248    84       0   15683  271410       0  271410  271381    29.1    0.00  1447.9 18826.0    0.00 18826.0 18825.1    0.89
 2015 249    85       0   15682  271396       0  271396  271366    29.4    0.00  1447.9 18824.9    0.00 18824.9 18824.0    0.90
 2015 250    86       0   15681  271381       0  271381  271352    29.8    0.00  1447.8 18823.9    0.00 18823.9 18823.0    0.92
 2015 251    87       0   15680  271367       0  271367  271337    30.1    0.00  1447.7 18822.9    0.00 18822.9 18822.0    0.93
 2015 252    88       0   15679  271353       0  271353  271322    30.4    0.00  1447.6 18821.9    0.00 18821.9 18821.0    0.94
 2015 253    89       0   15678  271339       0  271339  271308    30.8    0.00  1447.5 18820.9    0.00 18820.9 18820.0    0.96
 2015 254    90       0   15678  271325       0  271325  271294    31.2    0.00  1447.5 18820.0    0.00 18820.0 18819.0    0.97
 2015 255    91       0   15677  271311       0  271311  271279    31.6    0.00  1447.4 18819.0    0.00 18819.0 18818.0    0.99
 2015 256    92       0   15676  271297       0  271297  271265    32.2    0.00  1447.3 18818.0    0.00 18818.0 18817.0    1.00
 2015 257    93       0   15675  271284       0  271284  271251    32.8    0.00  1447.2 18817.1    0.00 18817.1 18816.0    1.02
 2015 258    94       0   15674  271270       0  271270  271237    33.4    0.00  1447.1 18816.1    0.00 18816.1 18815.1    1.03
 2015 259    95       0   15673  271257       0  271257  271223    34.0    0.00  1447.1 18815.2    0.00 18815.2 18814.1    1.05
 2015 260    96       0   15673  271244       0  271244  271209    34.6    0.00  1447.0 18814.2    0.00 18814.2 18813.1    1.06
 2015 261    97       0   15672  271230       0  271230  271195    35.2    0.00  1446.9 18813.2    0.00 18813.2 18812.1    1.08
 2015 262    98       0   15671  271216       0  271216  271181    35.8    0.00  1446.8 18812.3    0.00 18812.3 18811.2    1.10
 2015 263    99       0   15670  271203       0  271203  271166    36.5    0.00  1446.8 18811.3    0.00 18811.3 18810.2    1.11
 2015 264   100       0   15669  271189       0  271189  271152    37.2    0.00  1446.7 18810.3    0.00 18810.3 18809.2    1.13
 2015 265   101       0   15668  271175       0  271175  271137    37.8    0.00  1446.6 18809.3    0.00 18809.3 18808.2    1.15
 2015 266   102       0   15667  271162       0  271162  271123    38.5    0.00  1446.5 18808.3    0.00 18808.3 18807.2    1.17
 2015 267   103       0   15667  271148       0  271148  271108    39.3    0.00  1446.4 18807.3    0.00 18807.3 18806.2    1.19
 2015 268   104       0   15666  271134       0  271134  271094    40.1    0.00  1446.4 18806.3    0.00 18806.3 18805.1    1.21
 2015 269   105       0   15665  271120       0  271120  271079    40.9    0.00  1446.3 18805.4    0.00 18805.4 18804.1    1.23
 2015 270   106       0   15664  271107       0  271107  271065    41.7    0.00  1446.2 18804.4    0.00 18804.4 18803.1    1.25
 2015 271   107       0   15663  271094       0  271094  271051    42.6    0.00  1446.1 18803.4    0.00 18803.4 18802.2    1.27
 2015 272   108       0   15662  271081       0  271081  271037    43.5    0.00  1446.1 18802.5    0.00 18802.5 18801.2    1.29
 2015 273   109       0   15662  271068       0  271068  271024    44.4    0.00  1446.0 18801.6    0.00 18801.6 18800.3    1.32
 2015 274   110       0   15661  271055       0  271055  271010    45.4    0.00  1445.9 18800.7    0.00 18800.7 18799.3    1.34
 2015 275   111       0   15660  271042       0  271042  270996    46.2    0.00  1445.8 18799.7    0.00 18799.7 18798.3    1.37
 2015 276   112       0   15659  271028       0  271028  270981    47.0    0.00  1445.8 18798.7    0.00 18798.7 18797.3    1.39
 2015 277   113       0   15658  271014       0  271014  270966    47.9    0.00  1445.7 18797.7    0.00 18797.7 18796.3    1.42
 2015 278   114       0   15657  270999       0  270999  270951    48.8    0.00  1445.6 18796.7    0.00 18796.7 18795.2    1.44
 2015 279   115       0   15656  270985       0  270985  270935    49.8    0.00  1445.5 18795.6    0.00 18795.6 18794.1    1.47
 2015 280   116       0   15655  270970       0  270970  270919    50.7    0.00  1445.4 18794.5    0.00 18794.5 18793.0    1.50
 2015 281   117       0   15654  270956       0  270956  270904    51.6    0.00  1445.3 18793.5    0.00 18793.5 18792.0    1.52
 2015 282   118       0   15653  270942       0  270942  270889    52.7    0.00  1445.2 18792.5    0.00 18792.5 18790.9    1.55
 2015 283   119       0   15653  270928       0  270928  270874    53.9    0.00  1445.2 18791.5    0.00 18791.5 18789.9    1.59
 2015 284   120       0   15652  270915       0  270915  270860    55.3    0.00  1445.1 18790.5    0.00 18790.5 18788.9    1.62
 2015 285   121       0   15651  270902       0  270902  270845    56.7    0.00  1445.0 18789.6    0.00 18789.6 18787.9    1.65
 2015 286   122       0   15650  270889       0  270889  270831    58.1    0.00  1444.9 18788.6    0.00 18788.6 18786.9    1.69
 2015 287   123       0   15649  270876       0  270876  270816    59.7    0.00  1444.9 18787.7    0.00 18787.7 18785.9    1.73
 2015 288   124       0   15649  270864       0  270864  270802    61.4    0.00  1444.8 18786.7    0.00 18786.7 18785.0    1.77
 2015 289   125       0   15648  270852       0  270852  270788    63.2    0.00  1444.7 18785.8    0.00 18785.8 18784.0    1.81
 2015 290   126       0   15647  270840       0  270840  270775    65.1    0.00  1444.7 18784.9    0.00 18784.9 18783.1    1.85
 2015 291   127       0   15647  270828       0  270828  270761    67.1    0.00  1444.6 18784.1    0.00 18784.1 18782.2    1.89
 2015 292   128       0   15646  270817       0  270817  270748    69.2    0.00  1444.6 18783.2    0.00 18783.2 18781.3    1.94
 2015 293   129       0   15646  270806       0  270806  270735    71.2    0.00  1444.5 18782.4    0.00 18782.4 18780.4    1.98
 2015 294   130       0   15645  270796       0  270796  270723    73.3    0.00  1444.5 18781.6    0.00 18781.6 18779.6    2.03
 2015 295   131       0   15645  270786       0  270786  270710    75.5    0.00  1444.4 18780.8    0.00 18780.8 18778.7    2.08
 2015 296   132       0   15644  270776       0  270776  270698    77.8    0.00  1444.4 18780.0    0.00 18780.0 18777.9    2.13
 2015 297   133       0   15644  270766       0  270766  270686    80.2    0.00  1444.4 18779.3    0.00 18779.3 18777.1    2.18
 2015 298   134       0   15644  270757       0  270757  270674    82.6    0.00  1444.3 18778.5    0.00 18778.5 18776.3    2.23
 2015 299   135       0   15643  270748       0  270748  270663    85.1    0.00  1444.3 18777.8    0.00 18777.8 18775.5    2.28
 2015 300   136       0   15643  270739       0  270739  270651    87.7    0.00  1444.3 18777.1    0.00 18777.1 18774.8    2.34
 2015 301   137       0   15642  270730       0  270730  270640    90.3    0.00  1444.2 18776.4    0.00 18776.4 18774.0    2.39
 2015 302   138       0   15642  270720       0  270720  270628    92.5    0.00  1444.2 18775.6    0.00 18775.6 18773.2    2.44
 2015 303   139       0   15641  270706       0  270706  270615    91.2    0.00  1444.1 18774.8    0.00 18774.8 18772.3    2.44
 2015 304   140       0   15640  270693       0  270693  270603    90.2    0.00  1444.0 18773.9    0.00 18773.9 18771.5    2.43
 2015 305   141       0   15640  270680       0  270680  270591    89.4    0.00  1444.0 18773.1    0.00 18773.1 18770.7    2.43
