*SOIL TEMPERATURE OUTPUT FILE (DAILY)

*DSSAT Cropping System Model Ver. 4.7.5.008 -release  JAN 07, 2021 20:14:37

*RUN   1        : ERiMA DCC1                MZCER047 ETMZmelk    1
 MODEL          : MZCER047 - Maize
 EXPERIMENT     : ETMZmelk SN MELKSSAL
 DATA PATH      : C:\IRI\Python_Dash\ET_DSS_hist\TEST\
 TREATMENT  1   : ERiMA DCC1                MZCER047
  
! TAV  =    20.5
! TAMP =     4.1
!               Temperature (oC) by soil depth (cm):
!               Surface     0-5    5-15   15-20   20-35   35-50   50-65   65-81   81-97  97-118 118-200
@YEAR DOY   DAS    TS0D    TS1D    TS2D    TS3D    TS4D    TS5D    TS6D    TS7D    TS8D    TS9D    TS10
 1981 165     1    28.3    28.2    28.0    27.7    27.4    26.9    26.5    26.0    25.6    25.2    24.7
 1981 166     2    28.1    28.0    27.7    27.5    27.2    26.7    26.3    25.8    25.4    25.0    24.5
 1981 167     3    28.3    28.2    27.9    27.7    27.3    26.9    26.4    26.0    25.6    25.1    24.7
 1981 168     4    28.1    28.0    27.8    27.5    27.2    26.7    26.3    25.9    25.5    25.0    24.6
 1981 169     5    28.5    28.4    28.1    27.9    27.5    27.1    26.6    26.2    25.8    25.3    24.8
 1981 170     6    28.5    28.4    28.1    27.9    27.5    27.1    26.6    26.2    25.7    25.3    24.8
 1981 171     7    28.4    28.3    28.0    27.8    27.4    27.0    26.5    26.1    25.7    25.2    24.8
 1981 172     8    27.7    27.6    27.4    27.2    26.9    26.4    26.0    25.6    25.2    24.8    24.4
 1981 173     9    27.8    27.7    27.5    27.2    26.9    26.5    26.1    25.7    25.3    24.9    24.4
 1981 174    10    27.6    27.5    27.3    27.0    26.7    26.3    25.9    25.5    25.2    24.7    24.3
 1981 175    11    27.4    27.3    27.1    26.9    26.6    26.2    25.8    25.4    25.0    24.6    24.2
 1981 176    12    27.8    27.7    27.5    27.2    26.9    26.5    26.1    25.7    25.3    24.9    24.4
 1981 177    13    28.1    28.0    27.7    27.5    27.2    26.8    26.3    25.9    25.5    25.1    24.6
 1981 178    14    27.3    27.3    27.0    26.8    26.5    26.1    25.7    25.4    25.0    24.6    24.2
 1981 179    15    26.8    26.7    26.5    26.3    26.1    25.7    25.3    25.0    24.7    24.3    23.9
 1981 180    16    27.1    27.0    26.8    26.6    26.3    25.9    25.6    25.2    24.9    24.5    24.1
 1981 181    17    26.9    26.8    26.6    26.4    26.2    25.8    25.4    25.1    24.7    24.4    24.0
 1981 182    18    26.1    26.0    25.8    25.7    25.4    25.1    24.8    24.5    24.2    23.8    23.5
 1981 183    19    26.0    26.0    25.8    25.6    25.4    25.1    24.8    24.4    24.1    23.8    23.5
 1981 184    20    26.0    26.0    25.8    25.6    25.4    25.1    24.8    24.5    24.2    23.8    23.5
 1981 185    21    25.6    25.5    25.4    25.2    25.0    24.7    24.4    24.1    23.9    23.6    23.2
 1981 186    22    25.2    25.1    25.0    24.8    24.6    24.3    24.1    23.8    23.6    23.3    23.0
 1981 187    23    25.9    25.8    25.6    25.5    25.2    24.9    24.6    24.3    24.0    23.7    23.4
 1981 188    24    26.7    26.6    26.4    26.2    26.0    25.6    25.3    25.0    24.6    24.3    23.9
 1981 189    25    26.6    26.5    26.3    26.1    25.9    25.5    25.2    24.9    24.5    24.2    23.8
 1981 190    26    26.0    25.9    25.7    25.6    25.3    25.0    24.7    24.4    24.1    23.8    23.5
 1981 191    27    25.5    25.4    25.3    25.1    24.9    24.6    24.3    24.1    23.8    23.5    23.2
 1981 192    28    24.8    24.7    24.6    24.5    24.3    24.0    23.8    23.6    23.3    23.1    22.8
 1981 193    29    23.8    23.8    23.7    23.6    23.4    23.2    23.1    22.9    22.7    22.5    22.3
 1981 194    30    23.9    23.8    23.7    23.6    23.5    23.3    23.1    22.9    22.7    22.5    22.3
 1981 195    31    24.3    24.3    24.2    24.1    23.9    23.7    23.5    23.3    23.1    22.8    22.6
 1981 196    32    24.7    24.6    24.5    24.4    24.2    24.0    23.7    23.5    23.3    23.0    22.8
 1981 197    33    25.0    24.9    24.8    24.6    24.5    24.2    24.0    23.7    23.5    23.3    23.0
 1981 198    34    25.1    25.1    24.9    24.8    24.6    24.4    24.1    23.9    23.6    23.4    23.1
 1981 199    35    24.8    24.7    24.6    24.5    24.3    24.1    23.8    23.6    23.4    23.1    22.9
 1981 200    36    24.5    24.4    24.3    24.2    24.1    23.8    23.6    23.4    23.2    23.0    22.7
 1981 201    37    24.2    24.2    24.1    24.0    23.8    23.6    23.4    23.2    23.0    22.8    22.6
 1981 202    38    24.1    24.1    24.0    23.9    23.8    23.6    23.4    23.2    23.0    22.8    22.5
 1981 203    39    23.9    23.9    23.8    23.7    23.5    23.4    23.2    23.0    22.8    22.6    22.4
 1981 204    40    23.8    23.8    23.7    23.6    23.4    23.3    23.1    22.9    22.8    22.6    22.3
 1981 205    41    23.9    23.9    23.8    23.7    23.6    23.4    23.2    23.0    22.9    22.7    22.5
 1981 206    42    24.0    23.9    23.8    23.8    23.6    23.4    23.3    23.1    22.9    22.7    22.5
 1981 207    43    23.2    23.2    23.1    23.0    22.9    22.8    22.7    22.5    22.4    22.2    22.1
 1981 208    44    23.2    23.2    23.1    23.1    23.0    22.8    22.7    22.5    22.4    22.2    22.1
 1981 209    45    23.1    23.1    23.0    22.9    22.8    22.7    22.6    22.5    22.3    22.2    22.0
 1981 210    46    22.6    22.6    22.5    22.5    22.4    22.3    22.2    22.1    22.0    21.9    21.7
 1981 211    47    22.4    22.4    22.4    22.3    22.3    22.2    22.1    22.0    21.9    21.8    21.6
 1981 212    48    22.6    22.6    22.6    22.5    22.5    22.3    22.2    22.1    22.0    21.9    21.8
 1981 213    49    22.9    22.9    22.8    22.8    22.7    22.6    22.5    22.3    22.2    22.1    21.9
 1981 214    50    22.8    22.8    22.8    22.7    22.6    22.5    22.4    22.3    22.2    22.1    21.9
 1981 215    51    23.2    23.2    23.2    23.1    23.0    22.9    22.7    22.6    22.5    22.3    22.2
 1981 216    52    23.4    23.4    23.3    23.2    23.1    23.0    22.9    22.7    22.6    22.4    22.2
 1981 217    53    23.8    23.8    23.7    23.6    23.5    23.3    23.2    23.0    22.9    22.7    22.5
 1981 218    54    23.7    23.7    23.6    23.5    23.4    23.3    23.1    23.0    22.8    22.6    22.4
 1981 219    55    23.9    23.9    23.8    23.8    23.6    23.5    23.3    23.2    23.0    22.8    22.6
 1981 220    56    24.0    24.0    23.9    23.8    23.7    23.5    23.4    23.2    23.0    22.9    22.7
 1981 221    57    24.3    24.3    24.2    24.1    24.0    23.8    23.6    23.5    23.3    23.1    22.9
 1981 222    58    24.4    24.4    24.3    24.2    24.0    23.9    23.7    23.5    23.3    23.1    22.9
 1981 223    59    24.4    24.3    24.2    24.1    24.0    23.8    23.7    23.5    23.3    23.1    22.9
 1981 224    60    23.9    23.9    23.8    23.7    23.6    23.5    23.3    23.2    23.0    22.8    22.6
 1981 225    61    23.7    23.7    23.6    23.5    23.4    23.3    23.2    23.0    22.9    22.7    22.5
 1981 226    62    23.5    23.5    23.4    23.4    23.3    23.1    23.0    22.9    22.7    22.6    22.4
 1981 227    63    23.5    23.5    23.4    23.4    23.3    23.2    23.0    22.9    22.8    22.6    22.4
 1981 228    64    23.2    23.2    23.1    23.1    23.0    22.9    22.8    22.7    22.5    22.4    22.3
 1981 229    65    23.6    23.6    23.5    23.5    23.4    23.2    23.1    23.0    22.8    22.7    22.5
 1981 230    66    24.1    24.1    24.0    24.0    23.9    23.7    23.6    23.4    23.2    23.1    22.8
 1981 231    67    24.5    24.4    24.4    24.3    24.2    24.0    23.8    23.6    23.5    23.3    23.1
 1981 232    68    24.5    24.5    24.4    24.3    24.2    24.0    23.8    23.7    23.5    23.3    23.1
 1981 233    69    24.8    24.7    24.6    24.5    24.4    24.2    24.1    23.9    23.7    23.5    23.2
 1981 234    70    24.5    24.5    24.4    24.3    24.2    24.1    23.9    23.7    23.5    23.3    23.1
 1981 235    71    24.0    24.0    23.9    23.8    23.8    23.6    23.5    23.3    23.2    23.0    22.8
 1981 236    72    23.4    23.4    23.3    23.3    23.2    23.1    23.0    22.9    22.8    22.6    22.5
 1981 237    73    23.3    23.3    23.2    23.2    23.1    23.0    22.9    22.8    22.7    22.6    22.4
 1981 238    74    23.4    23.3    23.3    23.2    23.2    23.1    23.0    22.9    22.7    22.6    22.5
 1981 239    75    23.6    23.6    23.5    23.5    23.4    23.3    23.2    23.1    22.9    22.8    22.6
 1981 240    76    23.9    23.9    23.8    23.8    23.7    23.5    23.4    23.3    23.1    23.0    22.8
 1981 241    77    24.3    24.3    24.2    24.1    24.0    23.9    23.7    23.6    23.4    23.2    23.0
 1981 242    78    24.3    24.3    24.2    24.1    24.0    23.9    23.7    23.6    23.4    23.3    23.1
 1981 243    79    24.2    24.2    24.1    24.0    23.9    23.8    23.7    23.5    23.4    23.2    23.0
 1981 244    80    23.8    23.8    23.7    23.6    23.6    23.4    23.3    23.2    23.1    22.9    22.8
 1981 245    81    23.9    23.9    23.9    23.8    23.7    23.6    23.5    23.3    23.2    23.1    22.9
 1981 246    82    23.9    23.8    23.8    23.7    23.6    23.5    23.4    23.3    23.1    23.0    22.8
 1981 247    83    24.0    24.0    24.0    23.9    23.8    23.7    23.6    23.4    23.3    23.1    22.9
 1981 248    84    24.0    24.0    24.0    23.9    23.8    23.7    23.6    23.4    23.3    23.1    23.0
 1981 249    85    24.4    24.4    24.3    24.3    24.2    24.0    23.9    23.7    23.6    23.4    23.2
 1981 250    86    24.1    24.1    24.0    24.0    23.9    23.8    23.6    23.5    23.4    23.2    23.0
 1981 251    87    24.4    24.3    24.3    24.2    24.1    24.0    23.8    23.7    23.5    23.4    23.2
 1981 252    88    24.5    24.5    24.4    24.3    24.2    24.1    23.9    23.8    23.6    23.5    23.3
 1981 253    89    24.7    24.7    24.6    24.6    24.4    24.3    24.1    24.0    23.8    23.6    23.4
 1981 254    90    24.6    24.5    24.5    24.4    24.3    24.2    24.0    23.9    23.7    23.5    23.3
 1981 255    91    24.4    24.4    24.3    24.3    24.2    24.0    23.9    23.8    23.6    23.4    23.2
 1981 256    92    23.9    23.9    23.8    23.7    23.7    23.6    23.5    23.3    23.2    23.1    22.9
 1981 257    93    23.2    23.2    23.2    23.1    23.1    23.0    22.9    22.8    22.8    22.6    22.5
 1981 258    94    23.1    23.1    23.0    23.0    23.0    22.9    22.8    22.8    22.7    22.6    22.5
 1981 259    95    23.3    23.3    23.2    23.2    23.1    23.1    23.0    22.9    22.8    22.7    22.6
 1981 260    96    23.5    23.5    23.4    23.4    23.4    23.3    23.2    23.1    23.0    22.9    22.7
 1981 261    97    23.6    23.6    23.5    23.5    23.4    23.3    23.2    23.1    23.0    22.9    22.8
 1981 262    98    23.8    23.8    23.7    23.7    23.6    23.5    23.4    23.3    23.2    23.1    22.9
 1981 263    99    23.8    23.8    23.8    23.7    23.7    23.6    23.5    23.4    23.2    23.1    23.0
 1981 264   100    24.1    24.1    24.0    24.0    23.9    23.8    23.7    23.5    23.4    23.3    23.1
 1981 265   101    23.9    23.9    23.8    23.8    23.7    23.6    23.5    23.4    23.3    23.2    23.0
 1981 266   102    24.2    24.1    24.1    24.0    24.0    23.9    23.7    23.6    23.5    23.3    23.2
 1981 267   103    24.6    24.6    24.5    24.5    24.4    24.2    24.1    24.0    23.8    23.6    23.5
 1981 268   104    24.7    24.7    24.7    24.6    24.5    24.3    24.2    24.1    23.9    23.7    23.5
 1981 269   105    24.0    24.0    23.9    23.9    23.8    23.7    23.6    23.5    23.4    23.2    23.1
 1981 270   106    23.8    23.8    23.8    23.7    23.7    23.6    23.5    23.4    23.3    23.1    23.0
 1981 271   107    23.7    23.7    23.7    23.6    23.6    23.5    23.4    23.3    23.2    23.1    22.9
 1981 272   108    23.2    23.2    23.1    23.1    23.1    23.0    23.0    22.9    22.8    22.7    22.6
 1981 273   109    23.3    23.3    23.3    23.3    23.2    23.2    23.1    23.0    22.9    22.8    22.7
 1981 274   110    23.7    23.7    23.7    23.6    23.6    23.5    23.4    23.3    23.2    23.1    23.0
 1981 275   111    24.0    24.0    23.9    23.9    23.8    23.7    23.6    23.5    23.4    23.3    23.1
 1981 276   112    24.1    24.0    24.0    24.0    23.9    23.8    23.7    23.6    23.5    23.3    23.2
 1981 277   113    24.7    24.7    24.6    24.5    24.4    24.3    24.2    24.0    23.9    23.7    23.5
 1981 278   114    25.0    25.0    24.9    24.8    24.7    24.6    24.4    24.3    24.1    23.9    23.7
 1981 279   115    25.6    25.5    25.4    25.3    25.2    25.0    24.9    24.7    24.5    24.3    24.1
 1981 280   116    26.1    26.0    25.9    25.8    25.7    25.5    25.3    25.1    24.8    24.6    24.4
 1981 281   117    26.6    26.5    26.4    26.3    26.1    25.9    25.7    25.4    25.2    24.9    24.7
 1981 282   118    26.8    26.8    26.6    26.5    26.3    26.1    25.9    25.6    25.4    25.1    24.8
 1981 283   119    26.3    26.3    26.2    26.0    25.9    25.7    25.5    25.2    25.0    24.8    24.5
 1981 284   120    25.7    25.6    25.5    25.4    25.3    25.1    24.9    24.7    24.6    24.3    24.1
 1981 285   121    25.4    25.4    25.3    25.2    25.1    24.9    24.7    24.6    24.4    24.2    23.9
 1981 286   122    25.3    25.2    25.2    25.1    25.0    24.8    24.6    24.5    24.3    24.1    23.9
 1981 287   123    25.1    25.0    24.9    24.9    24.8    24.6    24.4    24.3    24.1    23.9    23.7
 1981 288   124    25.4    25.4    25.3    25.2    25.1    24.9    24.7    24.5    24.3    24.1    23.9
 1981 289   125    25.9    25.9    25.8    25.7    25.5    25.3    25.1    24.9    24.7    24.5    24.2
 1981 290   126    25.7    25.7    25.6    25.5    25.3    25.1    24.9    24.7    24.5    24.3    24.1
 1981 291   127    25.5    25.5    25.4    25.3    25.2    25.0    24.8    24.6    24.4    24.2    24.0
 1981 292   128    25.4    25.4    25.3    25.2    25.1    24.9    24.7    24.5    24.3    24.1    23.9
 1981 293   129    25.3    25.3    25.2    25.1    25.0    24.8    24.6    24.5    24.3    24.1    23.8
 1981 294   130    25.2    25.2    25.1    25.0    24.9    24.7    24.6    24.4    24.2    24.0    23.8
 1981 295   131    25.2    25.2    25.1    25.0    24.9    24.7    24.6    24.4    24.2    24.0    23.8
 1981 296   132    25.1    25.0    25.0    24.9    24.8    24.6    24.4    24.3    24.1    23.9    23.7
 1981 297   133    25.1    25.1    25.0    24.9    24.8    24.6    24.5    24.3    24.1    23.9    23.7
 1981 298   134    25.1    25.1    25.0    24.9    24.8    24.6    24.5    24.3    24.1    23.9    23.7
 1981 299   135    25.0    25.0    24.9    24.8    24.7    24.6    24.4    24.2    24.1    23.9    23.7
 1981 300   136    25.3    25.2    25.1    25.0    24.9    24.7    24.6    24.4    24.2    24.0    23.8
 1981 301   137    25.4    25.4    25.3    25.2    25.1    24.9    24.7    24.5    24.3    24.1    23.9
 1981 302   138    25.4    25.4    25.3    25.2    25.0    24.9    24.7    24.5    24.3    24.1    23.9
 1981 303   139    25.7    25.6    25.5    25.4    25.3    25.1    24.9    24.7    24.5    24.3    24.0
 1981 304   140    26.2    26.1    26.0    25.9    25.7    25.5    25.3    25.0    24.8    24.6    24.3
 1981 305   141    26.4    26.4    26.2    26.1    25.9    25.7    25.4    25.2    25.0    24.7    24.4

*DSSAT Cropping System Model Ver. 4.7.5.008 -release  JAN 07, 2021 20:14:37

*RUN   2        : ERiMA DCC1                MZCER047 ETMZmelk    1
 MODEL          : MZCER047 - Maize
 EXPERIMENT     : ETMZmelk SN MELKSSAL
 DATA PATH      : C:\IRI\Python_Dash\ET_DSS_hist\TEST\
 TREATMENT  1   : ERiMA DCC1                MZCER047
  
! TAV  =    20.5
! TAMP =     4.1
!               Temperature (oC) by soil depth (cm):
!               Surface     0-5    5-15   15-20   20-35   35-50   50-65   65-81   81-97  97-118 118-200
@YEAR DOY   DAS    TS0D    TS1D    TS2D    TS3D    TS4D    TS5D    TS6D    TS7D    TS8D    TS9D    TS10
 1982 165     1    28.7    28.6    28.3    28.0    27.7    27.2    26.7    26.3    25.9    25.4    24.9
 1982 166     2    28.0    27.9    27.6    27.4    27.1    26.6    26.2    25.8    25.4    24.9    24.5
 1982 167     3    26.7    26.6    26.4    26.2    25.9    25.6    25.2    24.8    24.5    24.1    23.7
 1982 168     4    26.9    26.8    26.6    26.4    26.1    25.7    25.4    25.0    24.6    24.3    23.9
 1982 169     5    26.3    26.2    26.0    25.8    25.6    25.2    24.9    24.5    24.2    23.9    23.5
 1982 170     6    25.1    25.1    24.9    24.7    24.5    24.2    24.0    23.7    23.4    23.1    22.8
 1982 171     7    25.0    25.0    24.8    24.6    24.4    24.1    23.9    23.6    23.3    23.1    22.8
 1982 172     8    25.7    25.6    25.5    25.3    25.1    24.7    24.4    24.1    23.8    23.5    23.2
 1982 173     9    25.1    25.1    24.9    24.8    24.5    24.3    24.0    23.7    23.4    23.2    22.8
 1982 174    10    25.0    24.9    24.8    24.6    24.4    24.1    23.9    23.6    23.3    23.1    22.8
 1982 175    11    25.8    25.7    25.5    25.3    25.1    24.8    24.5    24.2    23.9    23.6    23.2
 1982 176    12    26.1    26.0    25.8    25.6    25.4    25.1    24.7    24.4    24.1    23.8    23.4
 1982 177    13    25.7    25.7    25.5    25.3    25.1    24.8    24.5    24.2    23.9    23.6    23.2
 1982 178    14    25.6    25.5    25.3    25.2    25.0    24.6    24.3    24.1    23.8    23.5    23.1
 1982 179    15    25.5    25.4    25.3    25.1    24.9    24.6    24.3    24.0    23.7    23.4    23.1
 1982 180    16    25.7    25.7    25.5    25.3    25.1    24.8    24.5    24.2    23.9    23.6    23.3
 1982 181    17    25.8    25.7    25.5    25.4    25.1    24.8    24.5    24.2    23.9    23.6    23.3
 1982 182    18    25.9    25.9    25.7    25.5    25.3    25.0    24.7    24.4    24.1    23.7    23.4
 1982 183    19    26.0    25.9    25.7    25.6    25.3    25.0    24.7    24.4    24.1    23.8    23.4
 1982 184    20    26.3    26.2    26.0    25.8    25.6    25.3    24.9    24.6    24.3    24.0    23.6
 1982 185    21    26.2    26.1    25.9    25.7    25.5    25.2    24.9    24.6    24.2    23.9    23.6
 1982 186    22    26.6    26.5    26.3    26.1    25.9    25.5    25.2    24.9    24.5    24.2    23.8
 1982 187    23    27.0    26.9    26.7    26.5    26.3    25.9    25.5    25.2    24.9    24.5    24.1
 1982 188    24    26.9    26.8    26.6    26.4    26.2    25.8    25.5    25.1    24.8    24.4    24.0
 1982 189    25    27.2    27.2    26.9    26.7    26.5    26.1    25.7    25.4    25.0    24.6    24.2
 1982 190    26    27.0    26.9    26.7    26.5    26.3    25.9    25.5    25.2    24.8    24.5    24.1
 1982 191    27    26.1    26.0    25.8    25.7    25.4    25.1    24.8    24.5    24.2    23.9    23.5
 1982 192    28    26.3    26.2    26.1    25.9    25.6    25.3    25.0    24.7    24.4    24.0    23.7
 1982 193    29    26.4    26.4    26.2    26.0    25.8    25.4    25.1    24.8    24.5    24.1    23.8
 1982 194    30    25.8    25.8    25.6    25.4    25.2    24.9    24.6    24.3    24.0    23.7    23.4
 1982 195    31    25.5    25.4    25.3    25.1    24.9    24.6    24.4    24.1    23.8    23.5    23.2
 1982 196    32    25.6    25.6    25.4    25.3    25.0    24.8    24.5    24.2    23.9    23.6    23.3
 1982 197    33    25.0    25.0    24.8    24.7    24.5    24.2    24.0    23.8    23.5    23.2    23.0
 1982 198    34    24.5    24.5    24.4    24.2    24.1    23.8    23.6    23.4    23.2    22.9    22.7
 1982 199    35    23.9    23.9    23.8    23.7    23.5    23.3    23.1    23.0    22.8    22.6    22.3
 1982 200    36    23.4    23.4    23.3    23.2    23.1    22.9    22.7    22.6    22.4    22.2    22.0
 1982 201    37    23.2    23.2    23.1    23.0    22.9    22.8    22.6    22.4    22.3    22.1    21.9
 1982 202    38    22.9    22.8    22.8    22.7    22.6    22.5    22.3    22.2    22.1    21.9    21.7
 1982 203    39    22.0    22.0    22.0    21.9    21.9    21.8    21.7    21.6    21.5    21.4    21.3
 1982 204    40    22.4    22.4    22.3    22.3    22.2    22.1    22.0    21.9    21.8    21.6    21.5
 1982 205    41    22.8    22.8    22.8    22.7    22.6    22.5    22.3    22.2    22.1    21.9    21.8
 1982 206    42    22.9    22.8    22.8    22.7    22.6    22.5    22.4    22.2    22.1    22.0    21.8
 1982 207    43    23.0    22.9    22.9    22.8    22.7    22.6    22.4    22.3    22.2    22.0    21.9
 1982 208    44    24.0    24.0    23.9    23.8    23.6    23.4    23.3    23.1    22.9    22.7    22.5
 1982 209    45    24.2    24.2    24.1    24.0    23.8    23.6    23.4    23.3    23.1    22.9    22.6
 1982 210    46    24.4    24.3    24.2    24.1    24.0    23.8    23.6    23.4    23.2    23.0    22.7
 1982 211    47    24.2    24.1    24.0    23.9    23.8    23.6    23.4    23.2    23.1    22.9    22.6
 1982 212    48    24.0    24.0    23.9    23.8    23.7    23.5    23.3    23.1    23.0    22.8    22.6
 1982 213    49    23.4    23.4    23.3    23.2    23.1    23.0    22.8    22.7    22.5    22.4    22.2
 1982 214    50    22.6    22.6    22.6    22.5    22.5    22.4    22.2    22.1    22.0    21.9    21.8
 1982 215    51    22.6    22.6    22.6    22.5    22.4    22.3    22.2    22.1    22.0    21.9    21.8
 1982 216    52    23.0    23.0    22.9    22.9    22.8    22.7    22.5    22.4    22.3    22.2    22.0
 1982 217    53    23.2    23.1    23.1    23.0    22.9    22.8    22.7    22.6    22.4    22.3    22.1
 1982 218    54    23.4    23.4    23.3    23.3    23.2    23.0    22.9    22.8    22.6    22.5    22.3
 1982 219    55    23.7    23.7    23.6    23.6    23.5    23.3    23.2    23.0    22.8    22.7    22.5
 1982 220    56    23.3    23.3    23.3    23.2    23.1    23.0    22.8    22.7    22.6    22.4    22.2
 1982 221    57    22.9    22.9    22.9    22.8    22.7    22.6    22.5    22.4    22.3    22.2    22.0
 1982 222    58    22.7    22.7    22.7    22.6    22.6    22.5    22.4    22.3    22.2    22.1    21.9
 1982 223    59    23.0    22.9    22.9    22.8    22.8    22.7    22.6    22.4    22.3    22.2    22.1
 1982 224    60    23.2    23.1    23.1    23.0    23.0    22.8    22.7    22.6    22.5    22.4    22.2
 1982 225    61    23.3    23.3    23.3    23.2    23.1    23.0    22.9    22.7    22.6    22.5    22.3
 1982 226    62    22.8    22.8    22.8    22.7    22.7    22.6    22.5    22.4    22.3    22.2    22.0
 1982 227    63    22.7    22.7    22.6    22.6    22.6    22.5    22.4    22.3    22.2    22.1    22.0
 1982 228    64    22.5    22.5    22.4    22.4    22.4    22.3    22.2    22.1    22.0    21.9    21.8
 1982 229    65    22.3    22.3    22.3    22.3    22.2    22.2    22.1    22.0    21.9    21.9    21.7
 1982 230    66    22.5    22.5    22.4    22.4    22.4    22.3    22.2    22.2    22.1    22.0    21.9
 1982 231    67    22.7    22.7    22.7    22.7    22.6    22.5    22.4    22.4    22.3    22.2    22.0
 1982 232    68    22.8    22.8    22.8    22.7    22.7    22.6    22.5    22.4    22.3    22.2    22.1
 1982 233    69    22.9    22.8    22.8    22.8    22.7    22.6    22.5    22.5    22.4    22.2    22.1
 1982 234    70    23.4    23.4    23.4    23.3    23.2    23.1    23.0    22.9    22.8    22.6    22.5
 1982 235    71    23.5    23.5    23.4    23.4    23.3    23.2    23.1    23.0    22.8    22.7    22.5
 1982 236    72    23.8    23.8    23.8    23.7    23.6    23.5    23.3    23.2    23.1    22.9    22.7
 1982 237    73    24.0    23.9    23.9    23.8    23.7    23.6    23.4    23.3    23.1    23.0    22.8
 1982 238    74    24.0    24.0    23.9    23.8    23.7    23.6    23.5    23.3    23.2    23.0    22.8
 1982 239    75    23.7    23.7    23.7    23.6    23.5    23.4    23.3    23.1    23.0    22.9    22.7
 1982 240    76    23.7    23.7    23.7    23.6    23.5    23.4    23.3    23.1    23.0    22.9    22.7
 1982 241    77    24.3    24.2    24.2    24.1    24.0    23.9    23.7    23.6    23.4    23.2    23.0
 1982 242    78    24.9    24.9    24.8    24.7    24.6    24.4    24.2    24.0    23.8    23.6    23.4
 1982 243    79    25.5    25.4    25.3    25.2    25.1    24.9    24.7    24.5    24.3    24.0    23.8
 1982 244    80    25.4    25.4    25.3    25.1    25.0    24.8    24.6    24.4    24.2    24.0    23.7
 1982 245    81    25.5    25.5    25.4    25.3    25.1    24.9    24.7    24.5    24.3    24.1    23.8
 1982 246    82    25.3    25.2    25.1    25.0    24.9    24.7    24.5    24.3    24.1    23.9    23.7
 1982 247    83    24.9    24.8    24.8    24.7    24.6    24.4    24.2    24.0    23.9    23.7    23.4
 1982 248    84    24.5    24.5    24.4    24.3    24.2    24.1    23.9    23.8    23.6    23.4    23.2
 1982 249    85    24.7    24.6    24.5    24.5    24.4    24.2    24.1    23.9    23.7    23.5    23.3
 1982 250    86    24.9    24.9    24.8    24.7    24.6    24.4    24.3    24.1    23.9    23.7    23.5
 1982 251    87    25.2    25.2    25.1    25.0    24.9    24.7    24.5    24.3    24.1    23.9    23.7
 1982 252    88    25.6    25.5    25.4    25.3    25.2    25.0    24.8    24.6    24.4    24.2    23.9
 1982 253    89    25.7    25.7    25.6    25.5    25.3    25.1    24.9    24.7    24.5    24.2    24.0
 1982 254    90    25.9    25.9    25.8    25.7    25.5    25.3    25.1    24.9    24.6    24.4    24.1
 1982 255    91    25.6    25.6    25.5    25.4    25.2    25.0    24.8    24.6    24.4    24.2    23.9
 1982 256    92    24.9    24.9    24.8    24.7    24.6    24.5    24.3    24.1    23.9    23.7    23.5
 1982 257    93    24.1    24.1    24.0    24.0    23.9    23.8    23.7    23.5    23.4    23.2    23.1
 1982 258    94    23.6    23.6    23.6    23.5    23.5    23.4    23.3    23.2    23.1    22.9    22.8
 1982 259    95    22.9    22.9    22.9    22.9    22.9    22.8    22.7    22.7    22.6    22.5    22.4
 1982 260    96    23.2    23.2    23.1    23.1    23.1    23.0    22.9    22.8    22.8    22.7    22.5
 1982 261    97    24.1    24.1    24.1    24.0    23.9    23.8    23.7    23.6    23.4    23.3    23.1
 1982 262    98    24.6    24.5    24.5    24.4    24.3    24.2    24.0    23.9    23.7    23.6    23.4
 1982 263    99    24.9    24.9    24.8    24.7    24.6    24.5    24.3    24.2    24.0    23.8    23.6
 1982 264   100    25.8    25.8    25.7    25.6    25.4    25.2    25.0    24.8    24.6    24.4    24.1
 1982 265   101    25.8    25.7    25.6    25.5    25.4    25.2    25.0    24.8    24.6    24.3    24.1
 1982 266   102    25.5    25.5    25.4    25.3    25.2    25.0    24.8    24.6    24.4    24.2    23.9
 1982 267   103    26.2    26.1    26.0    25.9    25.7    25.5    25.3    25.1    24.8    24.6    24.3
 1982 268   104    26.8    26.8    26.6    26.5    26.3    26.1    25.8    25.5    25.3    25.0    24.7
 1982 269   105    26.6    26.6    26.4    26.3    26.1    25.9    25.6    25.4    25.1    24.8    24.5
 1982 270   106    26.7    26.7    26.6    26.4    26.2    26.0    25.7    25.5    25.2    24.9    24.6
 1982 271   107    26.4    26.4    26.3    26.1    26.0    25.7    25.5    25.2    25.0    24.7    24.4
 1982 272   108    26.2    26.2    26.0    25.9    25.8    25.5    25.3    25.1    24.8    24.6    24.3
 1982 273   109    26.0    26.0    25.9    25.8    25.6    25.4    25.2    24.9    24.7    24.5    24.2
 1982 274   110    26.4    26.3    26.2    26.1    25.9    25.6    25.4    25.2    24.9    24.7    24.4
 1982 275   111    26.5    26.4    26.3    26.2    26.0    25.7    25.5    25.3    25.0    24.7    24.4
 1982 276   112    26.9    26.9    26.7    26.6    26.4    26.1    25.8    25.6    25.3    25.0    24.7
 1982 277   113    27.1    27.0    26.9    26.7    26.5    26.3    26.0    25.7    25.4    25.1    24.8
 1982 278   114    27.2    27.2    27.0    26.9    26.7    26.4    26.1    25.8    25.5    25.2    24.9
 1982 279   115    27.4    27.3    27.1    27.0    26.8    26.5    26.2    25.9    25.6    25.3    24.9
 1982 280   116    26.2    26.1    26.0    25.9    25.7    25.5    25.3    25.0    24.8    24.6    24.3
 1982 281   117    25.6    25.6    25.5    25.4    25.2    25.0    24.8    24.6    24.4    24.2    24.0
 1982 282   118    25.2    25.1    25.0    25.0    24.9    24.7    24.5    24.4    24.2    24.0    23.8
 1982 283   119    24.9    24.9    24.8    24.7    24.6    24.5    24.3    24.2    24.0    23.8    23.6
 1982 284   120    24.6    24.5    24.5    24.4    24.3    24.2    24.1    23.9    23.8    23.6    23.4
 1982 285   121    25.5    25.4    25.3    25.3    25.1    24.9    24.8    24.6    24.4    24.2    23.9
 1982 286   122    25.4    25.4    25.3    25.2    25.1    24.9    24.7    24.5    24.3    24.1    23.9
 1982 287   123    25.5    25.5    25.4    25.3    25.1    25.0    24.8    24.6    24.4    24.2    24.0
 1982 288   124    24.7    24.7    24.6    24.6    24.5    24.3    24.2    24.0    23.9    23.7    23.5
 1982 289   125    23.9    23.9    23.9    23.8    23.8    23.7    23.6    23.5    23.4    23.2    23.1
 1982 290   126    23.5    23.5    23.5    23.5    23.4    23.3    23.3    23.2    23.1    23.0    22.8
 1982 291   127    23.8    23.8    23.8    23.7    23.7    23.6    23.5    23.4    23.3    23.2    23.0
 1982 292   128    23.9    23.9    23.9    23.8    23.8    23.7    23.6    23.5    23.3    23.2    23.1
 1982 293   129    24.6    24.6    24.5    24.4    24.3    24.2    24.1    23.9    23.8    23.6    23.4
 1982 294   130    25.6    25.6    25.5    25.4    25.3    25.1    24.9    24.7    24.5    24.3    24.0
 1982 295   131    26.5    26.4    26.3    26.2    26.0    25.8    25.5    25.3    25.1    24.8    24.5
 1982 296   132    26.8    26.7    26.6    26.5    26.3    26.0    25.8    25.5    25.3    25.0    24.7
 1982 297   133    26.9    26.9    26.7    26.6    26.4    26.1    25.8    25.6    25.3    25.0    24.7
 1982 298   134    27.0    27.0    26.8    26.7    26.5    26.2    26.0    25.7    25.4    25.1    24.8
 1982 299   135    26.8    26.8    26.6    26.5    26.3    26.0    25.8    25.5    25.3    25.0    24.7
 1982 300   136    26.6    26.5    26.4    26.3    26.1    25.8    25.6    25.4    25.1    24.8    24.5
 1982 301   137    26.5    26.5    26.3    26.2    26.0    25.8    25.5    25.3    25.1    24.8    24.5
 1982 302   138    26.4    26.4    26.2    26.1    25.9    25.7    25.5    25.2    25.0    24.7    24.4
 1982 303   139    26.0    25.9    25.8    25.7    25.5    25.3    25.1    24.9    24.7    24.5    24.2
 1982 304   140    25.8    25.7    25.6    25.5    25.4    25.2    25.0    24.8    24.6    24.3    24.1
 1982 305   141    25.8    25.8    25.7    25.6    25.4    25.2    25.0    24.8    24.6    24.4    24.1

*DSSAT Cropping System Model Ver. 4.7.5.008 -release  JAN 07, 2021 20:14:37

*RUN   3        : ERiMA DCC1                MZCER047 ETMZmelk    1
 MODEL          : MZCER047 - Maize
 EXPERIMENT     : ETMZmelk SN MELKSSAL
 DATA PATH      : C:\IRI\Python_Dash\ET_DSS_hist\TEST\
 TREATMENT  1   : ERiMA DCC1                MZCER047
  
! TAV  =    20.5
! TAMP =     4.1
!               Temperature (oC) by soil depth (cm):
!               Surface     0-5    5-15   15-20   20-35   35-50   50-65   65-81   81-97  97-118 118-200
@YEAR DOY   DAS    TS0D    TS1D    TS2D    TS3D    TS4D    TS5D    TS6D    TS7D    TS8D    TS9D    TS10
 1983 165     1    28.9    28.8    28.5    28.2    27.9    27.4    26.9    26.5    26.0    25.5    25.0
 1983 166     2    29.3    29.2    28.9    28.6    28.2    27.7    27.2    26.8    26.3    25.8    25.3
 1983 167     3    29.5    29.4    29.1    28.8    28.5    27.9    27.4    27.0    26.5    26.0    25.4
 1983 168     4    28.7    28.6    28.4    28.1    27.8    27.3    26.8    26.4    25.9    25.5    25.0
 1983 169     5    28.4    28.3    28.0    27.8    27.4    27.0    26.5    26.1    25.7    25.2    24.7
 1983 170     6    27.0    26.9    26.7    26.5    26.2    25.8    25.5    25.1    24.7    24.4    24.0
 1983 171     7    26.1    26.1    25.9    25.7    25.4    25.1    24.7    24.4    24.1    23.8    23.4
 1983 172     8    25.7    25.7    25.5    25.3    25.1    24.7    24.4    24.1    23.8    23.5    23.2
 1983 173     9    26.5    26.5    26.3    26.1    25.8    25.4    25.1    24.7    24.4    24.1    23.7
 1983 174    10    27.0    27.0    26.7    26.5    26.3    25.9    25.5    25.1    24.8    24.4    24.0
 1983 175    11    28.0    27.9    27.7    27.5    27.1    26.7    26.3    25.9    25.5    25.0    24.6
 1983 176    12    27.7    27.7    27.4    27.2    26.9    26.5    26.1    25.7    25.3    24.9    24.4
 1983 177    13    27.7    27.6    27.3    27.1    26.8    26.4    26.0    25.6    25.2    24.8    24.4
 1983 178    14    27.3    27.3    27.0    26.8    26.5    26.1    25.7    25.4    25.0    24.6    24.2
 1983 179    15    26.1    26.0    25.8    25.6    25.4    25.1    24.7    24.4    24.1    23.8    23.5
 1983 180    16    25.3    25.2    25.1    24.9    24.7    24.4    24.1    23.9    23.6    23.3    23.0
 1983 181    17    25.5    25.4    25.3    25.1    24.9    24.6    24.3    24.0    23.7    23.4    23.1
 1983 182    18    25.8    25.8    25.6    25.4    25.2    24.9    24.6    24.3    24.0    23.7    23.3
 1983 183    19    26.5    26.4    26.2    26.1    25.8    25.5    25.1    24.8    24.5    24.1    23.8
 1983 184    20    27.6    27.5    27.3    27.1    26.8    26.4    26.0    25.6    25.2    24.8    24.4
 1983 185    21    28.2    28.1    27.9    27.6    27.3    26.9    26.5    26.0    25.6    25.2    24.8
 1983 186    22    28.9    28.9    28.6    28.3    28.0    27.5    27.1    26.6    26.2    25.7    25.2
 1983 187    23    28.8    28.7    28.5    28.2    27.9    27.4    27.0    26.5    26.1    25.6    25.2
 1983 188    24    28.5    28.4    28.2    27.9    27.6    27.1    26.7    26.3    25.9    25.4    25.0
 1983 189    25    28.3    28.2    27.9    27.7    27.4    27.0    26.5    26.1    25.7    25.3    24.8
 1983 190    26    28.4    28.3    28.1    27.8    27.5    27.1    26.6    26.2    25.8    25.4    24.9
 1983 191    27    28.4    28.3    28.0    27.8    27.5    27.1    26.6    26.2    25.8    25.4    24.9
 1983 192    28    27.9    27.9    27.6    27.4    27.1    26.7    26.3    25.9    25.5    25.1    24.7
 1983 193    29    27.8    27.7    27.5    27.3    27.0    26.6    26.2    25.8    25.4    25.0    24.6
 1983 194    30    27.5    27.5    27.2    27.0    26.7    26.4    26.0    25.6    25.2    24.9    24.4
 1983 195    31    26.7    26.6    26.4    26.2    26.0    25.6    25.3    25.0    24.7    24.3    23.9
 1983 196    32    26.0    26.0    25.8    25.6    25.4    25.1    24.8    24.5    24.2    23.9    23.6
 1983 197    33    25.9    25.9    25.7    25.6    25.3    25.0    24.7    24.4    24.2    23.9    23.5
 1983 198    34    25.1    25.0    24.9    24.8    24.6    24.3    24.1    23.8    23.6    23.3    23.0
 1983 199    35    25.1    25.0    24.9    24.7    24.6    24.3    24.0    23.8    23.6    23.3    23.0
 1983 200    36    25.0    24.9    24.8    24.7    24.5    24.2    24.0    23.8    23.5    23.3    23.0
 1983 201    37    24.8    24.7    24.6    24.5    24.3    24.0    23.8    23.6    23.4    23.1    22.8
 1983 202    38    24.3    24.2    24.1    24.0    23.9    23.6    23.4    23.2    23.0    22.8    22.6
 1983 203    39    24.3    24.2    24.1    24.0    23.9    23.7    23.5    23.3    23.1    22.8    22.6
 1983 204    40    23.9    23.8    23.7    23.6    23.5    23.3    23.1    23.0    22.8    22.6    22.4
 1983 205    41    24.0    24.0    23.9    23.8    23.6    23.4    23.3    23.1    22.9    22.7    22.5
 1983 206    42    23.8    23.7    23.6    23.6    23.4    23.3    23.1    22.9    22.7    22.5    22.3
 1983 207    43    24.2    24.1    24.0    23.9    23.8    23.6    23.4    23.2    23.0    22.8    22.6
 1983 208    44    24.1    24.1    24.0    23.9    23.7    23.6    23.4    23.2    23.0    22.8    22.6
 1983 209    45    24.1    24.1    24.0    23.9    23.8    23.6    23.4    23.2    23.1    22.8    22.6
 1983 210    46    24.0    24.0    23.9    23.8    23.7    23.5    23.3    23.2    23.0    22.8    22.6
 1983 211    47    24.2    24.2    24.1    24.0    23.9    23.7    23.5    23.3    23.1    22.9    22.7
 1983 212    48    24.0    24.0    23.9    23.8    23.7    23.5    23.3    23.1    23.0    22.8    22.6
 1983 213    49    24.4    24.4    24.3    24.2    24.0    23.8    23.6    23.5    23.3    23.0    22.8
 1983 214    50    24.7    24.7    24.6    24.5    24.3    24.1    23.9    23.7    23.5    23.3    23.0
 1983 215    51    24.8    24.8    24.7    24.6    24.4    24.2    24.0    23.8    23.6    23.3    23.1
 1983 216    52    25.1    25.0    24.9    24.8    24.6    24.4    24.2    23.9    23.7    23.5    23.2
 1983 217    53    25.3    25.2    25.1    25.0    24.8    24.6    24.3    24.1    23.9    23.6    23.3
 1983 218    54    25.1    25.1    24.9    24.8    24.7    24.4    24.2    24.0    23.8    23.5    23.3
 1983 219    55    24.8    24.7    24.6    24.5    24.4    24.2    24.0    23.8    23.6    23.3    23.1
 1983 220    56    24.7    24.7    24.5    24.4    24.3    24.1    23.9    23.7    23.5    23.3    23.0
 1983 221    57    24.7    24.7    24.6    24.5    24.4    24.2    24.0    23.8    23.6    23.3    23.1
 1983 222    58    24.3    24.3    24.2    24.1    24.0    23.8    23.6    23.4    23.3    23.1    22.8
 1983 223    59    23.7    23.7    23.6    23.5    23.4    23.3    23.1    23.0    22.8    22.7    22.5
 1983 224    60    23.6    23.5    23.5    23.4    23.3    23.2    23.0    22.9    22.8    22.6    22.4
 1983 225    61    23.2    23.2    23.2    23.1    23.0    22.9    22.8    22.7    22.5    22.4    22.2
 1983 226    62    22.5    22.5    22.5    22.4    22.4    22.3    22.2    22.1    22.0    21.9    21.8
 1983 227    63    22.2    22.2    22.1    22.1    22.1    22.0    22.0    21.9    21.8    21.7    21.6
 1983 228    64    22.4    22.4    22.4    22.4    22.3    22.2    22.2    22.1    22.0    21.9    21.8
 1983 229    65    22.4    22.4    22.4    22.3    22.3    22.2    22.2    22.1    22.0    21.9    21.8
 1983 230    66    22.3    22.3    22.3    22.3    22.2    22.2    22.1    22.0    21.9    21.9    21.8
 1983 231    67    22.4    22.4    22.4    22.3    22.3    22.2    22.2    22.1    22.0    21.9    21.8
 1983 232    68    22.8    22.8    22.7    22.7    22.6    22.5    22.5    22.4    22.3    22.2    22.0
 1983 233    69    23.0    23.0    22.9    22.9    22.8    22.7    22.7    22.6    22.5    22.3    22.2
 1983 234    70    23.2    23.2    23.2    23.1    23.0    22.9    22.8    22.7    22.6    22.5    22.3
 1983 235    71    23.6    23.5    23.5    23.4    23.4    23.2    23.1    23.0    22.9    22.7    22.6
 1983 236    72    23.4    23.4    23.4    23.3    23.2    23.1    23.0    22.9    22.8    22.6    22.5
 1983 237    73    23.4    23.4    23.3    23.3    23.2    23.1    23.0    22.9    22.8    22.6    22.5
 1983 238    74    23.4    23.4    23.4    23.3    23.2    23.1    23.0    22.9    22.8    22.7    22.5
 1983 239    75    23.7    23.6    23.6    23.5    23.4    23.3    23.2    23.1    23.0    22.8    22.7
 1983 240    76    23.9    23.9    23.9    23.8    23.7    23.6    23.4    23.3    23.2    23.0    22.8
 1983 241    77    24.7    24.7    24.6    24.5    24.4    24.2    24.1    23.9    23.7    23.5    23.3
 1983 242    78    24.9    24.9    24.8    24.7    24.6    24.4    24.2    24.1    23.9    23.7    23.4
 1983 243    79    24.9    24.9    24.8    24.7    24.6    24.4    24.2    24.0    23.9    23.7    23.4
 1983 244    80    24.4    24.3    24.3    24.2    24.1    24.0    23.8    23.7    23.5    23.3    23.1
 1983 245    81    24.3    24.3    24.2    24.1    24.0    23.9    23.8    23.6    23.5    23.3    23.1
 1983 246    82    24.3    24.3    24.2    24.1    24.0    23.9    23.8    23.6    23.5    23.3    23.1
 1983 247    83    24.4    24.4    24.3    24.2    24.1    24.0    23.8    23.7    23.5    23.4    23.2
 1983 248    84    24.6    24.5    24.5    24.4    24.3    24.1    24.0    23.8    23.7    23.5    23.3
 1983 249    85    24.8    24.8    24.7    24.6    24.5    24.3    24.2    24.0    23.8    23.6    23.4
 1983 250    86    24.4    24.4    24.3    24.2    24.1    24.0    23.9    23.7    23.6    23.4    23.2
 1983 251    87    24.2    24.2    24.1    24.1    24.0    23.8    23.7    23.6    23.4    23.3    23.1
 1983 252    88    23.7    23.7    23.7    23.6    23.5    23.4    23.3    23.2    23.1    23.0    22.8
 1983 253    89    23.4    23.4    23.4    23.3    23.3    23.2    23.1    23.0    22.9    22.8    22.6
 1983 254    90    23.3    23.3    23.3    23.2    23.2    23.1    23.0    22.9    22.8    22.7    22.6
 1983 255    91    23.8    23.8    23.7    23.7    23.6    23.5    23.4    23.3    23.2    23.0    22.9
 1983 256    92    23.8    23.8    23.7    23.7    23.6    23.5    23.4    23.3    23.2    23.0    22.9
 1983 257    93    24.2    24.1    24.1    24.0    23.9    23.8    23.7    23.6    23.4    23.3    23.1
 1983 258    94    24.5    24.4    24.4    24.3    24.2    24.1    23.9    23.8    23.7    23.5    23.3
 1983 259    95    24.6    24.6    24.5    24.5    24.4    24.2    24.1    23.9    23.8    23.6    23.4
 1983 260    96    24.4    24.4    24.3    24.3    24.2    24.0    23.9    23.8    23.6    23.5    23.3
 1983 261    97    24.2    24.2    24.1    24.0    24.0    23.8    23.7    23.6    23.5    23.3    23.1
 1983 262    98    24.2    24.2    24.2    24.1    24.0    23.9    23.8    23.6    23.5    23.4    23.2
 1983 263    99    24.0    24.0    24.0    23.9    23.8    23.7    23.6    23.5    23.4    23.2    23.1
 1983 264   100    23.7    23.7    23.6    23.6    23.5    23.5    23.4    23.3    23.2    23.0    22.9
 1983 265   101    23.6    23.6    23.6    23.6    23.5    23.4    23.3    23.2    23.1    23.0    22.9
 1983 266   102    24.1    24.0    24.0    23.9    23.9    23.8    23.6    23.5    23.4    23.3    23.1
 1983 267   103    24.0    24.0    24.0    23.9    23.8    23.7    23.6    23.5    23.4    23.3    23.1
 1983 268   104    24.3    24.3    24.2    24.1    24.1    24.0    23.8    23.7    23.6    23.4    23.3
 1983 269   105    24.6    24.6    24.5    24.5    24.4    24.2    24.1    24.0    23.8    23.7    23.5
 1983 270   106    24.1    24.1    24.0    24.0    23.9    23.8    23.7    23.6    23.5    23.3    23.2
 1983 271   107    23.6    23.6    23.5    23.5    23.4    23.4    23.3    23.2    23.1    23.0    22.8
 1983 272   108    23.5    23.5    23.5    23.5    23.4    23.3    23.2    23.2    23.1    23.0    22.8
 1983 273   109    23.4    23.4    23.4    23.3    23.3    23.2    23.1    23.1    23.0    22.9    22.7
 1983 274   110    23.6    23.6    23.5    23.5    23.4    23.4    23.3    23.2    23.1    23.0    22.9
 1983 275   111    24.1    24.1    24.0    24.0    23.9    23.8    23.7    23.6    23.5    23.3    23.2
 1983 276   112    24.4    24.4    24.3    24.3    24.2    24.1    23.9    23.8    23.7    23.5    23.4
 1983 277   113    24.4    24.4    24.4    24.3    24.2    24.1    24.0    23.8    23.7    23.5    23.4
 1983 278   114    24.8    24.7    24.7    24.6    24.5    24.4    24.2    24.1    23.9    23.8    23.6
 1983 279   115    24.7    24.7    24.6    24.5    24.5    24.3    24.2    24.0    23.9    23.7    23.5
 1983 280   116    24.3    24.3    24.2    24.2    24.1    24.0    23.9    23.7    23.6    23.5    23.3
 1983 281   117    23.9    23.9    23.8    23.8    23.7    23.6    23.5    23.4    23.3    23.2    23.0
 1983 282   118    23.8    23.8    23.7    23.7    23.6    23.5    23.4    23.3    23.2    23.1    23.0
 1983 283   119    23.4    23.4    23.3    23.3    23.3    23.2    23.1    23.1    23.0    22.9    22.8
 1983 284   120    23.3    23.3    23.3    23.2    23.2    23.1    23.1    23.0    22.9    22.8    22.7
 1983 285   121    24.0    24.0    23.9    23.9    23.8    23.7    23.6    23.5    23.4    23.3    23.1
 1983 286   122    24.6    24.6    24.5    24.5    24.4    24.2    24.1    24.0    23.8    23.6    23.5
 1983 287   123    25.1    25.1    25.0    24.9    24.8    24.6    24.5    24.3    24.1    24.0    23.7
 1983 288   124    25.6    25.6    25.5    25.4    25.3    25.1    24.9    24.7    24.5    24.3    24.0
 1983 289   125    26.0    25.9    25.8    25.7    25.5    25.3    25.1    24.9    24.7    24.5    24.2
 1983 290   126    25.9    25.9    25.8    25.7    25.5    25.3    25.1    24.9    24.7    24.5    24.2
 1983 291   127    26.0    25.9    25.8    25.7    25.6    25.4    25.2    24.9    24.7    24.5    24.2
 1983 292   128    25.8    25.7    25.6    25.5    25.4    25.2    25.0    24.8    24.6    24.4    24.1
 1983 293   129    25.3    25.3    25.2    25.1    25.0    24.8    24.6    24.5    24.3    24.1    23.9
 1983 294   130    24.9    24.9    24.8    24.8    24.7    24.5    24.3    24.2    24.0    23.8    23.6
 1983 295   131    24.4    24.3    24.3    24.2    24.1    24.0    23.9    23.8    23.6    23.5    23.3
 1983 296   132    24.0    24.0    24.0    23.9    23.8    23.7    23.6    23.5    23.4    23.3    23.1
 1983 297   133    24.0    24.0    23.9    23.9    23.8    23.7    23.6    23.5    23.4    23.2    23.1
 1983 298   134    24.2    24.2    24.1    24.1    24.0    23.9    23.8    23.6    23.5    23.4    23.2
 1983 299   135    24.5    24.5    24.4    24.3    24.2    24.1    24.0    23.9    23.7    23.6    23.4
 1983 300   136    25.1    25.0    25.0    24.9    24.8    24.6    24.4    24.3    24.1    23.9    23.7
 1983 301   137    25.4    25.4    25.3    25.2    25.1    24.9    24.7    24.5    24.4    24.2    23.9
 1983 302   138    25.6    25.5    25.4    25.3    25.2    25.0    24.8    24.6    24.4    24.2    24.0

*DSSAT Cropping System Model Ver. 4.7.5.008 -release  JAN 07, 2021 20:14:37

*RUN   4        : ERiMA DCC1                MZCER047 ETMZmelk    1
 MODEL          : MZCER047 - Maize
 EXPERIMENT     : ETMZmelk SN MELKSSAL
 DATA PATH      : C:\IRI\Python_Dash\ET_DSS_hist\TEST\
 TREATMENT  1   : ERiMA DCC1                MZCER047
  
! TAV  =    20.5
! TAMP =     4.1
!               Temperature (oC) by soil depth (cm):
!               Surface     0-5    5-15   15-20   20-35   35-50   50-65   65-81   81-97  97-118 118-200
@YEAR DOY   DAS    TS0D    TS1D    TS2D    TS3D    TS4D    TS5D    TS6D    TS7D    TS8D    TS9D    TS10
 1984 165     1    28.1    28.0    27.8    27.5    27.2    26.7    26.3    25.9    25.5    25.0    24.6
 1984 166     2    27.6    27.5    27.3    27.1    26.7    26.3    25.9    25.5    25.1    24.7    24.3
 1984 167     3    26.5    26.5    26.3    26.0    25.8    25.4    25.1    24.7    24.4    24.0    23.6
 1984 168     4    25.4    25.3    25.1    25.0    24.8    24.4    24.1    23.9    23.6    23.3    23.0
 1984 169     5    24.6    24.6    24.4    24.3    24.1    23.8    23.5    23.3    23.0    22.8    22.5
 1984 170     6    25.0    24.9    24.8    24.6    24.4    24.1    23.8    23.6    23.3    23.0    22.7
 1984 171     7    24.4    24.4    24.2    24.1    23.9    23.6    23.4    23.1    22.9    22.7    22.4
 1984 172     8    24.8    24.7    24.6    24.4    24.2    24.0    23.7    23.4    23.2    22.9    22.6
 1984 173     9    24.6    24.5    24.4    24.2    24.1    23.8    23.5    23.3    23.0    22.8    22.5
 1984 174    10    24.4    24.3    24.2    24.0    23.9    23.6    23.4    23.1    22.9    22.7    22.4
 1984 175    11    24.5    24.5    24.3    24.2    24.0    23.7    23.5    23.3    23.0    22.8    22.5
 1984 176    12    24.8    24.7    24.6    24.4    24.2    24.0    23.7    23.4    23.2    22.9    22.7
 1984 177    13    24.5    24.4    24.3    24.1    24.0    23.7    23.5    23.2    23.0    22.7    22.5
 1984 178    14    24.9    24.8    24.7    24.5    24.3    24.1    23.8    23.5    23.3    23.0    22.7
 1984 179    15    24.8    24.8    24.6    24.5    24.3    24.0    23.8    23.5    23.3    23.0    22.7
 1984 180    16    24.5    24.4    24.3    24.1    24.0    23.7    23.5    23.2    23.0    22.8    22.5
 1984 181    17    24.4    24.3    24.2    24.1    23.9    23.7    23.4    23.2    23.0    22.7    22.5
 1984 182    18    24.6    24.6    24.4    24.3    24.1    23.9    23.6    23.4    23.1    22.9    22.6
 1984 183    19    24.4    24.4    24.2    24.1    23.9    23.7    23.5    23.2    23.0    22.8    22.5
 1984 184    20    24.8    24.7    24.6    24.4    24.3    24.0    23.7    23.5    23.3    23.0    22.7
 1984 185    21    24.2    24.2    24.0    23.9    23.8    23.5    23.3    23.1    22.9    22.6    22.4
 1984 186    22    23.8    23.8    23.7    23.6    23.4    23.2    23.0    22.8    22.6    22.4    22.2
 1984 187    23    23.6    23.6    23.5    23.3    23.2    23.0    22.8    22.6    22.5    22.3    22.0
 1984 188    24    23.8    23.7    23.6    23.5    23.4    23.2    23.0    22.8    22.6    22.4    22.2
 1984 189    25    23.9    23.8    23.7    23.6    23.5    23.2    23.0    22.9    22.7    22.5    22.2
 1984 190    26    24.4    24.3    24.2    24.1    23.9    23.7    23.5    23.2    23.0    22.8    22.5
 1984 191    27    24.9    24.9    24.8    24.6    24.4    24.2    23.9    23.7    23.4    23.2    22.9
 1984 192    28    25.0    25.0    24.8    24.7    24.5    24.2    24.0    23.7    23.5    23.2    22.9
 1984 193    29    25.0    24.9    24.8    24.7    24.5    24.2    24.0    23.7    23.5    23.2    22.9
 1984 194    30    24.5    24.5    24.4    24.2    24.1    23.8    23.6    23.4    23.2    22.9    22.7
 1984 195    31    24.6    24.6    24.5    24.3    24.2    23.9    23.7    23.5    23.2    23.0    22.7
 1984 196    32    24.2    24.2    24.0    23.9    23.8    23.6    23.4    23.2    22.9    22.7    22.5
 1984 197    33    23.9    23.9    23.8    23.7    23.6    23.4    23.2    23.0    22.8    22.6    22.3
 1984 198    34    23.9    23.9    23.7    23.6    23.5    23.3    23.1    22.9    22.7    22.5    22.3
 1984 199    35    23.5    23.5    23.4    23.3    23.2    23.0    22.8    22.7    22.5    22.3    22.1
 1984 200    36    23.1    23.1    23.0    22.9    22.8    22.7    22.5    22.4    22.2    22.1    21.9
 1984 201    37    23.1    23.1    23.0    22.9    22.8    22.7    22.5    22.4    22.2    22.1    21.9
 1984 202    38    23.1    23.0    23.0    22.9    22.8    22.6    22.5    22.4    22.2    22.1    21.9
 1984 203    39    22.5    22.5    22.4    22.4    22.3    22.2    22.1    21.9    21.8    21.7    21.6
 1984 204    40    22.8    22.8    22.7    22.7    22.6    22.4    22.3    22.2    22.1    21.9    21.8
 1984 205    41    23.3    23.3    23.2    23.1    23.0    22.8    22.7    22.5    22.4    22.2    22.0
 1984 206    42    23.3    23.3    23.2    23.1    23.0    22.9    22.7    22.6    22.4    22.3    22.1
 1984 207    43    23.3    23.3    23.2    23.1    23.0    22.9    22.7    22.6    22.4    22.3    22.1
 1984 208    44    23.8    23.7    23.6    23.6    23.4    23.3    23.1    22.9    22.8    22.6    22.4
 1984 209    45    24.0    23.9    23.8    23.7    23.6    23.4    23.3    23.1    22.9    22.7    22.5
 1984 210    46    23.7    23.7    23.6    23.5    23.4    23.2    23.1    22.9    22.7    22.6    22.4
 1984 211    47    23.8    23.8    23.7    23.6    23.5    23.3    23.2    23.0    22.8    22.6    22.4
 1984 212    48    24.1    24.1    24.0    23.9    23.8    23.6    23.4    23.2    23.0    22.8    22.6
 1984 213    49    24.0    24.0    23.9    23.8    23.7    23.5    23.4    23.2    23.0    22.8    22.6
 1984 214    50    23.8    23.8    23.7    23.6    23.5    23.3    23.2    23.0    22.8    22.7    22.5
 1984 215    51    23.7    23.7    23.6    23.5    23.4    23.2    23.1    22.9    22.8    22.6    22.4
 1984 216    52    23.7    23.7    23.6    23.5    23.4    23.3    23.1    23.0    22.8    22.6    22.4
 1984 217    53    23.3    23.3    23.2    23.2    23.1    22.9    22.8    22.7    22.5    22.4    22.2
 1984 218    54    23.5    23.5    23.4    23.4    23.3    23.1    23.0    22.8    22.7    22.5    22.4
 1984 219    55    23.4    23.4    23.3    23.3    23.2    23.0    22.9    22.8    22.6    22.5    22.3
 1984 220    56    23.4    23.4    23.3    23.2    23.2    23.0    22.9    22.8    22.6    22.5    22.3
 1984 221    57    23.5    23.4    23.4    23.3    23.2    23.1    23.0    22.8    22.7    22.5    22.4
 1984 222    58    23.8    23.8    23.7    23.7    23.6    23.4    23.3    23.1    23.0    22.8    22.6
 1984 223    59    23.8    23.8    23.7    23.7    23.6    23.4    23.3    23.1    23.0    22.8    22.6
 1984 224    60    24.2    24.2    24.1    24.0    23.9    23.7    23.6    23.4    23.2    23.0    22.8
 1984 225    61    24.7    24.6    24.5    24.4    24.3    24.1    23.9    23.7    23.6    23.3    23.1
 1984 226    62    24.6    24.6    24.5    24.4    24.2    24.1    23.9    23.7    23.5    23.3    23.1
 1984 227    63    24.5    24.5    24.4    24.3    24.1    24.0    23.8    23.6    23.4    23.2    23.0
 1984 228    64    24.5    24.5    24.4    24.3    24.2    24.0    23.8    23.6    23.5    23.3    23.0
 1984 229    65    24.3    24.2    24.2    24.1    24.0    23.8    23.6    23.5    23.3    23.1    22.9
 1984 230    66    23.9    23.9    23.8    23.7    23.6    23.5    23.4    23.2    23.1    22.9    22.7
 1984 231    67    23.6    23.6    23.6    23.5    23.4    23.3    23.2    23.0    22.9    22.7    22.6
 1984 232    68    23.8    23.7    23.7    23.6    23.5    23.4    23.3    23.1    23.0    22.8    22.6
 1984 233    69    23.7    23.6    23.6    23.5    23.4    23.3    23.2    23.0    22.9    22.8    22.6
 1984 234    70    23.8    23.8    23.7    23.7    23.6    23.4    23.3    23.2    23.0    22.9    22.7
 1984 235    71    24.2    24.2    24.1    24.0    23.9    23.8    23.6    23.5    23.3    23.1    22.9
 1984 236    72    24.7    24.6    24.5    24.5    24.3    24.2    24.0    23.8    23.6    23.4    23.2
 1984 237    73    24.8    24.8    24.7    24.6    24.5    24.3    24.1    23.9    23.7    23.5    23.3
 1984 238    74    25.3    25.2    25.1    25.0    24.9    24.7    24.5    24.3    24.0    23.8    23.5
 1984 239    75    25.5    25.4    25.3    25.2    25.0    24.8    24.6    24.4    24.2    23.9    23.7
 1984 240    76    25.3    25.2    25.1    25.0    24.9    24.7    24.5    24.3    24.1    23.8    23.6
 1984 241    77    25.0    24.9    24.8    24.7    24.6    24.4    24.2    24.0    23.9    23.6    23.4
 1984 242    78    25.0    24.9    24.8    24.7    24.6    24.4    24.2    24.0    23.9    23.6    23.4
 1984 243    79    24.7    24.7    24.6    24.5    24.4    24.2    24.1    23.9    23.7    23.5    23.3
 1984 244    80    24.8    24.8    24.7    24.6    24.5    24.3    24.1    23.9    23.7    23.5    23.3
 1984 245    81    25.1    25.1    25.0    24.9    24.8    24.6    24.4    24.2    24.0    23.8    23.5
 1984 246    82    25.2    25.2    25.1    25.0    24.8    24.6    24.4    24.2    24.0    23.8    23.6
 1984 247    83    25.0    24.9    24.8    24.7    24.6    24.4    24.2    24.1    23.9    23.7    23.4
 1984 248    84    25.2    25.1    25.0    24.9    24.8    24.6    24.4    24.2    24.0    23.8    23.5
 1984 249    85    25.1    25.0    24.9    24.8    24.7    24.5    24.3    24.2    24.0    23.7    23.5
 1984 250    86    24.6    24.6    24.5    24.4    24.3    24.2    24.0    23.8    23.7    23.5    23.2
 1984 251    87    24.9    24.8    24.7    24.7    24.5    24.4    24.2    24.0    23.8    23.6    23.4
 1984 252    88    24.6    24.6    24.5    24.4    24.3    24.1    24.0    23.8    23.7    23.5    23.3
 1984 253    89    24.5    24.4    24.4    24.3    24.2    24.0    23.9    23.7    23.6    23.4    23.2
 1984 254    90    24.6    24.6    24.5    24.4    24.3    24.2    24.0    23.9    23.7    23.5    23.3
 1984 255    91    24.3    24.3    24.2    24.1    24.0    23.9    23.8    23.6    23.5    23.3    23.1
 1984 256    92    23.7    23.7    23.7    23.6    23.5    23.4    23.3    23.2    23.1    22.9    22.8
 1984 257    93    24.0    24.0    23.9    23.9    23.8    23.7    23.6    23.4    23.3    23.1    23.0
 1984 258    94    24.0    24.0    23.9    23.9    23.8    23.7    23.5    23.4    23.3    23.1    23.0
 1984 259    95    23.7    23.7    23.6    23.6    23.5    23.4    23.3    23.2    23.1    22.9    22.8
 1984 260    96    24.0    24.0    24.0    23.9    23.8    23.7    23.6    23.5    23.3    23.2    23.0
 1984 261    97    24.7    24.7    24.6    24.5    24.4    24.2    24.1    23.9    23.8    23.6    23.4
 1984 262    98    25.0    24.9    24.9    24.8    24.7    24.5    24.3    24.1    24.0    23.8    23.5
 1984 263    99    25.1    25.1    25.0    24.9    24.8    24.6    24.4    24.3    24.1    23.9    23.6
 1984 264   100    25.3    25.2    25.1    25.0    24.9    24.7    24.5    24.3    24.1    23.9    23.7
 1984 265   101    25.6    25.5    25.4    25.3    25.2    25.0    24.8    24.6    24.4    24.1    23.9
 1984 266   102    24.9    24.9    24.8    24.7    24.6    24.5    24.3    24.1    24.0    23.8    23.5
 1984 267   103    24.3    24.3    24.2    24.2    24.1    24.0    23.8    23.7    23.5    23.4    23.2
 1984 268   104    23.9    23.9    23.8    23.8    23.7    23.6    23.5    23.4    23.3    23.1    22.9
 1984 269   105    23.6    23.6    23.5    23.5    23.4    23.3    23.3    23.2    23.0    22.9    22.8
 1984 270   106    23.3    23.3    23.2    23.2    23.2    23.1    23.0    22.9    22.8    22.7    22.6
 1984 271   107    23.9    23.8    23.8    23.7    23.7    23.6    23.5    23.3    23.2    23.1    22.9
 1984 272   108    24.1    24.1    24.0    24.0    23.9    23.8    23.7    23.5    23.4    23.2    23.1
 1984 273   109    24.5    24.4    24.4    24.3    24.2    24.1    23.9    23.8    23.6    23.5    23.3
 1984 274   110    24.5    24.5    24.4    24.4    24.3    24.1    24.0    23.8    23.7    23.5    23.3
 1984 275   111    24.8    24.8    24.7    24.6    24.5    24.4    24.2    24.0    23.9    23.7    23.5
 1984 276   112    24.9    24.9    24.8    24.7    24.6    24.4    24.3    24.1    23.9    23.7    23.5
 1984 277   113    25.3    25.3    25.2    25.1    25.0    24.8    24.6    24.4    24.2    24.0    23.7
 1984 278   114    25.3    25.3    25.2    25.1    25.0    24.8    24.6    24.4    24.2    24.0    23.8
 1984 279   115    25.8    25.7    25.6    25.5    25.4    25.2    25.0    24.7    24.5    24.3    24.0
 1984 280   116    25.7    25.7    25.6    25.5    25.3    25.1    24.9    24.7    24.5    24.3    24.0
 1984 281   117    25.7    25.6    25.5    25.4    25.3    25.1    24.9    24.7    24.5    24.2    24.0
 1984 282   118    25.6    25.5    25.4    25.3    25.2    25.0    24.8    24.6    24.4    24.2    23.9
 1984 283   119    25.6    25.6    25.5    25.4    25.2    25.0    24.8    24.6    24.4    24.2    23.9
 1984 284   120    25.7    25.6    25.5    25.4    25.3    25.1    24.9    24.7    24.5    24.2    24.0
 1984 285   121    25.7    25.7    25.6    25.5    25.4    25.1    24.9    24.7    24.5    24.3    24.0
 1984 286   122    25.8    25.8    25.7    25.6    25.4    25.2    25.0    24.8    24.6    24.4    24.1
 1984 287   123    26.0    25.9    25.8    25.7    25.6    25.3    25.1    24.9    24.7    24.4    24.2
 1984 288   124    26.0    26.0    25.9    25.7    25.6    25.4    25.2    24.9    24.7    24.5    24.2
 1984 289   125    25.7    25.7    25.6    25.5    25.4    25.2    25.0    24.7    24.5    24.3    24.1
 1984 290   126    25.7    25.7    25.6    25.5    25.4    25.2    25.0    24.7    24.5    24.3    24.1
 1984 291   127    25.9    25.8    25.7    25.6    25.5    25.3    25.0    24.8    24.6    24.4    24.1
 1984 292   128    25.4    25.4    25.3    25.2    25.1    24.9    24.7    24.5    24.3    24.1    23.9
 1984 293   129    25.5    25.4    25.3    25.2    25.1    24.9    24.7    24.5    24.4    24.1    23.9
 1984 294   130    25.4    25.4    25.3    25.2    25.1    24.9    24.7    24.5    24.3    24.1    23.9
 1984 295   131    25.3    25.2    25.1    25.0    24.9    24.7    24.6    24.4    24.2    24.0    23.8
 1984 296   132    24.9    24.8    24.7    24.7    24.6    24.4    24.3    24.1    23.9    23.8    23.6

*DSSAT Cropping System Model Ver. 4.7.5.008 -release  JAN 07, 2021 20:14:37

*RUN   5        : ERiMA DCC1                MZCER047 ETMZmelk    1
 MODEL          : MZCER047 - Maize
 EXPERIMENT     : ETMZmelk SN MELKSSAL
 DATA PATH      : C:\IRI\Python_Dash\ET_DSS_hist\TEST\
 TREATMENT  1   : ERiMA DCC1                MZCER047
  
! TAV  =    20.5
! TAMP =     4.1
!               Temperature (oC) by soil depth (cm):
!               Surface     0-5    5-15   15-20   20-35   35-50   50-65   65-81   81-97  97-118 118-200
@YEAR DOY   DAS    TS0D    TS1D    TS2D    TS3D    TS4D    TS5D    TS6D    TS7D    TS8D    TS9D    TS10
 1985 165     1    26.0    26.0    25.8    25.6    25.3    25.0    24.6    24.3    24.0    23.7    23.3
 1985 166     2    26.7    26.6    26.4    26.2    25.9    25.5    25.1    24.8    24.5    24.1    23.7
 1985 167     3    26.3    26.2    26.0    25.8    25.6    25.2    24.9    24.5    24.2    23.9    23.5
 1985 168     4    26.4    26.3    26.1    25.9    25.7    25.3    24.9    24.6    24.3    23.9    23.6
 1985 169     5    26.3    26.2    26.0    25.8    25.6    25.2    24.9    24.5    24.2    23.9    23.5
 1985 170     6    25.9    25.8    25.6    25.4    25.2    24.9    24.5    24.2    23.9    23.6    23.3
 1985 171     7    24.9    24.9    24.7    24.5    24.3    24.1    23.8    23.5    23.3    23.0    22.7
 1985 172     8    25.3    25.2    25.0    24.9    24.6    24.3    24.1    23.8    23.5    23.2    22.9
 1985 173     9    24.9    24.9    24.7    24.5    24.3    24.1    23.8    23.5    23.3    23.0    22.7
 1985 174    10    25.0    25.0    24.8    24.6    24.4    24.1    23.9    23.6    23.3    23.1    22.8
 1985 175    11    25.2    25.1    25.0    24.8    24.6    24.3    24.0    23.8    23.5    23.2    22.9
 1985 176    12    25.2    25.1    24.9    24.8    24.6    24.3    24.0    23.7    23.5    23.2    22.9
 1985 177    13    25.4    25.3    25.1    25.0    24.8    24.5    24.2    23.9    23.6    23.3    23.0
 1985 178    14    25.5    25.4    25.3    25.1    24.9    24.6    24.3    24.0    23.7    23.4    23.1
 1985 179    15    25.3    25.2    25.0    24.9    24.7    24.4    24.1    23.8    23.6    23.3    23.0
 1985 180    16    25.2    25.1    25.0    24.8    24.6    24.3    24.1    23.8    23.5    23.2    22.9
 1985 181    17    25.3    25.3    25.1    25.0    24.8    24.5    24.2    23.9    23.6    23.3    23.0
 1985 182    18    24.5    24.5    24.3    24.2    24.0    23.8    23.5    23.3    23.0    22.8    22.5
 1985 183    19    24.4    24.4    24.3    24.1    24.0    23.7    23.5    23.2    23.0    22.8    22.5
 1985 184    20    24.3    24.3    24.2    24.0    23.9    23.6    23.4    23.2    22.9    22.7    22.4
 1985 185    21    23.4    23.4    23.3    23.2    23.1    22.9    22.7    22.5    22.3    22.2    21.9
 1985 186    22    22.7    22.7    22.6    22.5    22.4    22.3    22.1    22.0    21.8    21.7    21.5
 1985 187    23    23.0    23.0    22.9    22.8    22.7    22.5    22.4    22.2    22.1    21.9    21.7
 1985 188    24    22.8    22.8    22.7    22.6    22.5    22.4    22.2    22.1    21.9    21.8    21.6
 1985 189    25    22.5    22.5    22.4    22.3    22.2    22.1    22.0    21.8    21.7    21.6    21.4
 1985 190    26    22.9    22.9    22.8    22.7    22.6    22.5    22.3    22.2    22.0    21.9    21.7
 1985 191    27    23.5    23.5    23.4    23.3    23.2    23.0    22.8    22.6    22.5    22.3    22.1
 1985 192    28    23.5    23.4    23.3    23.3    23.1    22.9    22.8    22.6    22.4    22.2    22.0
 1985 193    29    23.2    23.2    23.1    23.0    22.9    22.7    22.6    22.4    22.3    22.1    21.9
 1985 194    30    23.7    23.7    23.6    23.5    23.4    23.2    23.0    22.8    22.6    22.4    22.2
 1985 195    31    23.1    23.1    23.0    23.0    22.8    22.7    22.5    22.4    22.2    22.1    21.9
 1985 196    32    23.2    23.1    23.0    23.0    22.9    22.7    22.5    22.4    22.2    22.1    21.9
 1985 197    33    23.0    22.9    22.9    22.8    22.7    22.5    22.4    22.3    22.1    22.0    21.8
 1985 198    34    23.2    23.2    23.1    23.0    22.9    22.8    22.6    22.5    22.3    22.1    21.9
 1985 199    35    23.0    23.0    22.9    22.8    22.7    22.6    22.4    22.3    22.1    22.0    21.8
 1985 200    36    23.2    23.2    23.1    23.0    22.9    22.8    22.6    22.5    22.3    22.2    22.0
 1985 201    37    22.9    22.9    22.8    22.8    22.7    22.5    22.4    22.3    22.1    22.0    21.8
 1985 202    38    23.2    23.1    23.1    23.0    22.9    22.7    22.6    22.5    22.3    22.1    22.0
 1985 203    39    23.1    23.1    23.0    23.0    22.9    22.7    22.6    22.4    22.3    22.1    22.0
 1985 204    40    23.0    22.9    22.9    22.8    22.7    22.6    22.4    22.3    22.2    22.0    21.9
 1985 205    41    23.0    23.0    22.9    22.8    22.7    22.6    22.5    22.3    22.2    22.1    21.9
 1985 206    42    23.2    23.2    23.1    23.0    23.0    22.8    22.7    22.5    22.4    22.2    22.0
 1985 207    43    22.9    22.9    22.8    22.8    22.7    22.5    22.4    22.3    22.2    22.0    21.9
 1985 208    44    22.6    22.6    22.6    22.5    22.4    22.3    22.2    22.1    22.0    21.9    21.7
 1985 209    45    22.7    22.7    22.6    22.5    22.5    22.4    22.2    22.1    22.0    21.9    21.7
 1985 210    46    22.7    22.7    22.6    22.5    22.5    22.4    22.3    22.1    22.0    21.9    21.8
 1985 211    47    22.6    22.5    22.5    22.4    22.4    22.3    22.2    22.1    22.0    21.8    21.7
 1985 212    48    22.6    22.6    22.5    22.5    22.4    22.3    22.2    22.1    22.0    21.9    21.7
 1985 213    49    22.9    22.9    22.8    22.8    22.7    22.6    22.5    22.3    22.2    22.1    21.9
 1985 214    50    22.9    22.9    22.8    22.8    22.7    22.6    22.5    22.4    22.2    22.1    21.9
 1985 215    51    23.2    23.1    23.1    23.0    22.9    22.8    22.7    22.5    22.4    22.3    22.1
 1985 216    52    23.1    23.0    23.0    22.9    22.8    22.7    22.6    22.5    22.4    22.2    22.1
 1985 217    53    22.9    22.9    22.9    22.8    22.7    22.6    22.5    22.4    22.3    22.1    22.0
 1985 218    54    23.1    23.1    23.0    22.9    22.9    22.7    22.6    22.5    22.4    22.2    22.1
 1985 219    55    23.2    23.2    23.1    23.1    23.0    22.8    22.7    22.6    22.5    22.3    22.2
 1985 220    56    23.0    23.0    22.9    22.9    22.8    22.7    22.6    22.5    22.3    22.2    22.1
 1985 221    57    23.1    23.0    23.0    22.9    22.9    22.7    22.6    22.5    22.4    22.3    22.1
 1985 222    58    23.5    23.5    23.5    23.4    23.3    23.2    23.0    22.9    22.7    22.6    22.4
 1985 223    59    23.3    23.3    23.2    23.1    23.1    22.9    22.8    22.7    22.6    22.4    22.3
 1985 224    60    23.3    23.2    23.2    23.1    23.1    22.9    22.8    22.7    22.6    22.4    22.3
 1985 225    61    23.5    23.5    23.4    23.4    23.3    23.2    23.0    22.9    22.8    22.6    22.4
 1985 226    62    23.5    23.4    23.4    23.3    23.2    23.1    23.0    22.9    22.7    22.6    22.4
 1985 227    63    23.0    22.9    22.9    22.8    22.8    22.7    22.6    22.5    22.4    22.2    22.1
 1985 228    64    22.8    22.8    22.8    22.8    22.7    22.6    22.5    22.4    22.3    22.2    22.1
 1985 229    65    22.8    22.8    22.7    22.7    22.6    22.6    22.5    22.4    22.3    22.2    22.0
 1985 230    66    22.6    22.6    22.6    22.5    22.5    22.4    22.3    22.3    22.2    22.1    21.9
 1985 231    67    22.8    22.8    22.7    22.7    22.7    22.6    22.5    22.4    22.3    22.2    22.0
 1985 232    68    23.1    23.1    23.0    23.0    22.9    22.8    22.7    22.6    22.5    22.4    22.2
 1985 233    69    23.1    23.1    23.0    23.0    22.9    22.8    22.7    22.6    22.5    22.4    22.2
 1985 234    70    23.1    23.0    23.0    23.0    22.9    22.8    22.7    22.6    22.5    22.4    22.2
 1985 235    71    23.1    23.1    23.1    23.0    23.0    22.9    22.8    22.7    22.6    22.4    22.3
 1985 236    72    23.2    23.2    23.1    23.1    23.0    22.9    22.8    22.7    22.6    22.5    22.3
 1985 237    73    23.3    23.3    23.2    23.2    23.1    23.0    22.9    22.8    22.7    22.6    22.4
 1985 238    74    23.4    23.4    23.3    23.3    23.2    23.1    23.0    22.9    22.8    22.6    22.5
 1985 239    75    23.3    23.3    23.2    23.2    23.1    23.0    22.9    22.8    22.7    22.6    22.4
 1985 240    76    22.9    22.9    22.9    22.8    22.8    22.7    22.6    22.5    22.4    22.3    22.2
 1985 241    77    22.5    22.5    22.5    22.4    22.4    22.4    22.3    22.2    22.2    22.1    22.0
 1985 242    78    22.2    22.2    22.2    22.2    22.2    22.1    22.1    22.0    22.0    21.9    21.8
 1985 243    79    21.9    21.9    21.9    21.9    21.9    21.9    21.8    21.8    21.7    21.7    21.6
 1985 244    80    22.0    22.0    22.0    22.0    22.0    22.0    21.9    21.9    21.8    21.8    21.7
 1985 245    81    22.3    22.3    22.3    22.3    22.3    22.2    22.2    22.1    22.1    22.0    21.9
 1985 246    82    22.7    22.7    22.7    22.7    22.6    22.6    22.5    22.4    22.4    22.3    22.2
 1985 247    83    23.3    23.3    23.3    23.2    23.2    23.1    23.0    22.9    22.8    22.7    22.5
 1985 248    84    24.1    24.1    24.0    24.0    23.9    23.7    23.6    23.5    23.3    23.2    23.0
 1985 249    85    24.3    24.3    24.3    24.2    24.1    23.9    23.8    23.7    23.5    23.3    23.1
 1985 250    86    24.7    24.7    24.6    24.5    24.4    24.3    24.1    23.9    23.8    23.6    23.4
 1985 251    87    25.0    25.0    24.9    24.8    24.7    24.5    24.3    24.2    24.0    23.8    23.6
 1985 252    88    24.8    24.8    24.7    24.6    24.5    24.3    24.2    24.0    23.9    23.7    23.5
 1985 253    89    24.5    24.5    24.4    24.3    24.2    24.1    24.0    23.8    23.7    23.5    23.3
 1985 254    90    24.3    24.2    24.2    24.1    24.0    23.9    23.8    23.6    23.5    23.3    23.1
 1985 255    91    24.0    24.0    23.9    23.9    23.8    23.7    23.6    23.4    23.3    23.2    23.0
 1985 256    92    23.8    23.8    23.8    23.7    23.6    23.5    23.4    23.3    23.2    23.1    22.9
 1985 257    93    23.8    23.8    23.7    23.7    23.6    23.5    23.4    23.3    23.2    23.0    22.9
 1985 258    94    23.9    23.9    23.8    23.8    23.7    23.6    23.5    23.4    23.3    23.1    23.0
 1985 259    95    24.3    24.3    24.2    24.2    24.1    23.9    23.8    23.7    23.5    23.4    23.2
 1985 260    96    24.2    24.2    24.1    24.0    24.0    23.8    23.7    23.6    23.5    23.3    23.1
 1985 261    97    24.3    24.3    24.2    24.1    24.1    23.9    23.8    23.7    23.5    23.4    23.2
 1985 262    98    24.3    24.3    24.3    24.2    24.1    24.0    23.9    23.7    23.6    23.4    23.2
 1985 263    99    24.2    24.1    24.1    24.0    23.9    23.8    23.7    23.6    23.5    23.3    23.1
 1985 264   100    23.8    23.8    23.7    23.7    23.6    23.5    23.4    23.3    23.2    23.1    22.9
 1985 265   101    23.9    23.9    23.9    23.8    23.8    23.7    23.5    23.4    23.3    23.2    23.0
 1985 266   102    23.8    23.8    23.7    23.7    23.6    23.5    23.4    23.3    23.2    23.1    22.9
 1985 267   103    23.7    23.7    23.7    23.6    23.6    23.5    23.4    23.3    23.2    23.0    22.9
 1985 268   104    23.8    23.7    23.7    23.7    23.6    23.5    23.4    23.3    23.2    23.1    22.9
 1985 269   105    23.9    23.9    23.9    23.8    23.7    23.6    23.5    23.4    23.3    23.2    23.0
 1985 270   106    23.9    23.9    23.8    23.8    23.7    23.6    23.5    23.4    23.3    23.2    23.0
 1985 271   107    23.8    23.8    23.8    23.7    23.7    23.6    23.5    23.4    23.3    23.1    23.0
 1985 272   108    23.7    23.7    23.7    23.6    23.6    23.5    23.4    23.3    23.2    23.1    22.9
 1985 273   109    23.8    23.8    23.8    23.7    23.6    23.6    23.5    23.3    23.2    23.1    23.0
 1985 274   110    24.2    24.2    24.1    24.1    24.0    23.9    23.7    23.6    23.5    23.3    23.2
 1985 275   111    24.6    24.5    24.5    24.4    24.3    24.2    24.0    23.9    23.8    23.6    23.4
 1985 276   112    25.0    24.9    24.9    24.8    24.7    24.5    24.4    24.2    24.0    23.8    23.6
 1985 277   113    25.6    25.6    25.5    25.4    25.2    25.0    24.8    24.6    24.5    24.2    24.0
 1985 278   114    26.1    26.0    25.9    25.8    25.7    25.4    25.2    25.0    24.8    24.5    24.2
 1985 279   115    26.0    26.0    25.9    25.8    25.6    25.4    25.2    25.0    24.7    24.5    24.2
 1985 280   116    26.0    25.9    25.8    25.7    25.6    25.4    25.1    24.9    24.7    24.5    24.2
 1985 281   117    26.1    26.1    25.9    25.8    25.7    25.4    25.2    25.0    24.8    24.5    24.2
 1985 282   118    25.8    25.8    25.7    25.6    25.4    25.2    25.0    24.8    24.6    24.4    24.1
 1985 283   119    25.5    25.4    25.3    25.2    25.1    24.9    24.7    24.5    24.3    24.1    23.9
 1985 284   120    25.1    25.1    25.0    24.9    24.8    24.6    24.5    24.3    24.1    23.9    23.7
 1985 285   121    25.3    25.3    25.2    25.1    25.0    24.8    24.6    24.4    24.2    24.0    23.8
 1985 286   122    25.2    25.2    25.1    25.0    24.9    24.7    24.5    24.3    24.2    24.0    23.7
 1985 287   123    25.4    25.3    25.2    25.1    25.0    24.8    24.7    24.5    24.3    24.1    23.8
 1985 288   124    25.2    25.2    25.1    25.0    24.9    24.7    24.5    24.4    24.2    24.0    23.8
 1985 289   125    25.6    25.6    25.5    25.4    25.2    25.0    24.8    24.6    24.4    24.2    24.0
 1985 290   126    25.7    25.7    25.6    25.5    25.4    25.2    24.9    24.7    24.5    24.3    24.1
 1985 291   127    26.0    25.9    25.8    25.7    25.6    25.3    25.1    24.9    24.7    24.5    24.2
 1985 292   128    26.2    26.1    26.0    25.9    25.7    25.5    25.3    25.0    24.8    24.6    24.3
 1985 293   129    26.8    26.7    26.6    26.4    26.3    26.0    25.7    25.5    25.2    24.9    24.6
 1985 294   130    26.7    26.7    26.6    26.4    26.2    26.0    25.7    25.5    25.2    24.9    24.6
 1985 295   131    26.7    26.6    26.5    26.4    26.2    25.9    25.7    25.4    25.2    24.9    24.6
 1985 296   132    26.3    26.3    26.2    26.0    25.9    25.6    25.4    25.2    24.9    24.7    24.4
 1985 297   133    25.4    25.3    25.2    25.1    25.0    24.8    24.6    24.5    24.3    24.1    23.8
 1985 298   134    24.9    24.9    24.8    24.7    24.6    24.5    24.3    24.1    24.0    23.8    23.6
 1985 299   135    24.9    24.9    24.8    24.7    24.6    24.5    24.3    24.2    24.0    23.8    23.6
 1985 300   136    24.9    24.9    24.8    24.7    24.6    24.5    24.3    24.1    24.0    23.8    23.6
 1985 301   137    25.3    25.3    25.2    25.1    25.0    24.8    24.6    24.4    24.3    24.0    23.8
 1985 302   138    26.3    26.2    26.1    26.0    25.8    25.6    25.3    25.1    24.9    24.6    24.3
 1985 303   139    26.9    26.8    26.7    26.5    26.3    26.1    25.8    25.5    25.3    25.0    24.7
 1985 304   140    27.2    27.1    27.0    26.8    26.6    26.3    26.0    25.8    25.5    25.2    24.9
 1985 305   141    27.0    26.9    26.8    26.6    26.4    26.1    25.9    25.6    25.3    25.1    24.7
 1985 306   142    26.7    26.7    26.5    26.4    26.2    25.9    25.7    25.4    25.2    24.9    24.6
 1985 307   143    26.6    26.5    26.4    26.3    26.1    25.8    25.6    25.3    25.1    24.8    24.5
 1985 308   144    25.9    25.9    25.7    25.6    25.5    25.3    25.0    24.8    24.6    24.4    24.1
 1985 309   145    25.6    25.6    25.5    25.4    25.2    25.0    24.8    24.7    24.5    24.2    24.0
 1985 310   146    25.8    25.7    25.6    25.5    25.4    25.2    25.0    24.8    24.6    24.3    24.1
 1985 311   147    25.7    25.7    25.6    25.5    25.3    25.1    24.9    24.7    24.5    24.3    24.0

*DSSAT Cropping System Model Ver. 4.7.5.008 -release  JAN 07, 2021 20:14:37

*RUN   6        : ERiMA DCC1                MZCER047 ETMZmelk    1
 MODEL          : MZCER047 - Maize
 EXPERIMENT     : ETMZmelk SN MELKSSAL
 DATA PATH      : C:\IRI\Python_Dash\ET_DSS_hist\TEST\
 TREATMENT  1   : ERiMA DCC1                MZCER047
  
! TAV  =    20.5
! TAMP =     4.1
!               Temperature (oC) by soil depth (cm):
!               Surface     0-5    5-15   15-20   20-35   35-50   50-65   65-81   81-97  97-118 118-200
@YEAR DOY   DAS    TS0D    TS1D    TS2D    TS3D    TS4D    TS5D    TS6D    TS7D    TS8D    TS9D    TS10
 1986 165     1    25.5    25.4    25.3    25.1    24.9    24.5    24.2    23.9    23.6    23.3    23.0
 1986 166     2    25.6    25.5    25.3    25.1    24.9    24.6    24.3    24.0    23.7    23.4    23.1
 1986 167     3    25.7    25.7    25.5    25.3    25.1    24.7    24.4    24.1    23.8    23.5    23.2
 1986 168     4    25.5    25.4    25.2    25.0    24.8    24.5    24.2    23.9    23.6    23.3    23.0
 1986 169     5    25.4    25.4    25.2    25.0    24.8    24.5    24.2    23.9    23.6    23.3    23.0
 1986 170     6    25.5    25.4    25.2    25.1    24.8    24.5    24.2    23.9    23.7    23.4    23.0
 1986 171     7    25.1    25.0    24.9    24.7    24.5    24.2    23.9    23.6    23.4    23.1    22.8
 1986 172     8    24.4    24.4    24.2    24.1    23.9    23.6    23.4    23.2    22.9    22.7    22.4
 1986 173     9    24.2    24.2    24.0    23.9    23.7    23.5    23.2    23.0    22.8    22.5    22.3
 1986 174    10    24.2    24.2    24.1    23.9    23.8    23.5    23.3    23.0    22.8    22.6    22.3
 1986 175    11    24.1    24.0    23.9    23.8    23.6    23.4    23.1    22.9    22.7    22.5    22.2
 1986 176    12    24.1    24.1    23.9    23.8    23.6    23.4    23.2    23.0    22.7    22.5    22.3
 1986 177    13    24.2    24.2    24.0    23.9    23.7    23.5    23.3    23.0    22.8    22.6    22.3
 1986 178    14    24.4    24.4    24.2    24.1    23.9    23.7    23.4    23.2    23.0    22.7    22.5
 1986 179    15    23.9    23.9    23.7    23.6    23.5    23.2    23.0    22.8    22.6    22.4    22.2
 1986 180    16    24.1    24.0    23.9    23.8    23.6    23.4    23.2    22.9    22.7    22.5    22.3
 1986 181    17    23.8    23.8    23.7    23.6    23.4    23.2    23.0    22.8    22.6    22.4    22.1
 1986 182    18    23.9    23.8    23.7    23.6    23.4    23.2    23.0    22.8    22.6    22.4    22.2
 1986 183    19    23.6    23.5    23.4    23.3    23.2    23.0    22.8    22.6    22.4    22.2    22.0
 1986 184    20    24.2    24.2    24.0    23.9    23.7    23.5    23.3    23.1    22.9    22.6    22.4
 1986 185    21    24.4    24.3    24.2    24.1    23.9    23.7    23.4    23.2    23.0    22.7    22.5
 1986 186    22    24.8    24.8    24.6    24.5    24.3    24.1    23.8    23.6    23.3    23.1    22.8
 1986 187    23    25.2    25.1    25.0    24.8    24.6    24.3    24.1    23.8    23.6    23.3    23.0
 1986 188    24    25.4    25.4    25.2    25.1    24.9    24.6    24.3    24.0    23.7    23.5    23.1
 1986 189    25    24.9    24.8    24.7    24.6    24.4    24.1    23.9    23.6    23.4    23.1    22.8
 1986 190    26    24.8    24.7    24.6    24.5    24.3    24.0    23.8    23.5    23.3    23.1    22.8
 1986 191    27    24.9    24.8    24.7    24.5    24.4    24.1    23.9    23.6    23.4    23.1    22.8
 1986 192    28    25.0    24.9    24.8    24.6    24.5    24.2    23.9    23.7    23.5    23.2    22.9
 1986 193    29    25.1    25.1    24.9    24.8    24.6    24.3    24.1    23.8    23.6    23.3    23.0
 1986 194    30    25.3    25.3    25.1    25.0    24.8    24.5    24.3    24.0    23.7    23.5    23.2
 1986 195    31    25.0    24.9    24.8    24.7    24.5    24.2    24.0    23.7    23.5    23.2    23.0
 1986 196    32    24.7    24.6    24.5    24.4    24.2    24.0    23.7    23.5    23.3    23.0    22.8
 1986 197    33    24.4    24.4    24.2    24.1    24.0    23.7    23.5    23.3    23.1    22.9    22.6
[...]
 2013 252    88    24.0    24.0    23.9    23.8    23.7    23.5    23.4    23.2    23.1    22.9    22.7
 2013 253    89    24.1    24.1    24.0    23.9    23.8    23.6    23.5    23.3    23.2    23.0    22.8
 2013 254    90    24.5    24.5    24.4    24.3    24.2    24.0    23.8    23.6    23.4    23.2    23.0
 2013 255    91    24.6    24.6    24.5    24.4    24.2    24.0    23.9    23.7    23.5    23.3    23.1
 2013 256    92    24.3    24.3    24.2    24.1    24.0    23.8    23.6    23.5    23.3    23.1    22.9
 2013 257    93    24.3    24.2    24.2    24.1    23.9    23.8    23.6    23.4    23.3    23.1    22.9
 2013 258    94    24.5    24.4    24.3    24.2    24.1    23.9    23.8    23.6    23.4    23.2    23.0
 2013 259    95    24.0    24.0    23.9    23.8    23.7    23.5    23.4    23.2    23.1    22.9    22.7
 2013 260    96    24.2    24.1    24.0    24.0    23.8    23.7    23.5    23.3    23.2    23.0    22.8
 2013 261    97    24.4    24.4    24.3    24.2    24.0    23.9    23.7    23.5    23.3    23.2    23.0
 2013 262    98    24.7    24.7    24.6    24.4    24.3    24.1    23.9    23.7    23.6    23.4    23.1
 2013 263    99    24.8    24.8    24.7    24.6    24.5    24.2    24.1    23.9    23.7    23.5    23.2
 2013 264   100    25.2    25.2    25.0    24.9    24.8    24.5    24.3    24.1    23.9    23.7    23.4
 2013 265   101    25.3    25.2    25.1    25.0    24.8    24.6    24.4    24.2    24.0    23.7    23.5
 2013 266   102    25.4    25.3    25.2    25.1    24.9    24.7    24.5    24.2    24.0    23.8    23.5
 2013 267   103    25.3    25.3    25.2    25.0    24.9    24.7    24.4    24.2    24.0    23.8    23.5
 2013 268   104    25.4    25.3    25.2    25.1    24.9    24.7    24.5    24.2    24.0    23.8    23.5
 2013 269   105    25.4    25.4    25.3    25.1    25.0    24.7    24.5    24.3    24.1    23.8    23.6
 2013 270   106    25.6    25.5    25.4    25.3    25.1    24.9    24.6    24.4    24.2    23.9    23.7
 2013 271   107    25.8    25.8    25.6    25.5    25.3    25.1    24.8    24.6    24.3    24.1    23.8
 2013 272   108    26.0    26.0    25.8    25.7    25.5    25.2    25.0    24.7    24.5    24.2    23.9
 2013 273   109    26.0    25.9    25.8    25.6    25.5    25.2    24.9    24.7    24.4    24.2    23.9
 2013 274   110    25.9    25.9    25.7    25.6    25.4    25.1    24.9    24.6    24.4    24.1    23.8
 2013 275   111    25.8    25.7    25.6    25.5    25.3    25.0    24.8    24.5    24.3    24.0    23.8
 2013 276   112    25.6    25.6    25.4    25.3    25.1    24.9    24.6    24.4    24.2    23.9    23.7
 2013 277   113    25.4    25.3    25.2    25.1    24.9    24.7    24.5    24.3    24.0    23.8    23.5
 2013 278   114    25.4    25.4    25.2    25.1    25.0    24.7    24.5    24.3    24.1    23.8    23.6
 2013 279   115    25.4    25.4    25.2    25.1    24.9    24.7    24.5    24.3    24.1    23.8    23.6
 2013 280   116    25.4    25.4    25.2    25.1    25.0    24.7    24.5    24.3    24.1    23.8    23.6
 2013 281   117    25.1    25.1    25.0    24.8    24.7    24.5    24.3    24.1    23.9    23.6    23.4
 2013 282   118    25.1    25.1    25.0    24.8    24.7    24.5    24.3    24.1    23.9    23.7    23.4
 2013 283   119    24.9    24.8    24.7    24.6    24.5    24.3    24.1    23.9    23.7    23.5    23.3
 2013 284   120    24.8    24.8    24.7    24.6    24.5    24.3    24.1    23.9    23.7    23.5    23.3
 2013 285   121    24.8    24.8    24.7    24.6    24.5    24.3    24.1    23.9    23.7    23.5    23.3
 2013 286   122    25.2    25.2    25.1    25.0    24.8    24.6    24.4    24.2    24.0    23.7    23.5
 2013 287   123    25.5    25.4    25.3    25.2    25.0    24.8    24.5    24.3    24.1    23.9    23.6
 2013 288   124    25.9    25.9    25.8    25.6    25.4    25.2    24.9    24.7    24.4    24.2    23.9
 2013 289   125    26.1    26.0    25.9    25.7    25.5    25.3    25.0    24.8    24.5    24.3    24.0
 2013 290   126    26.1    26.0    25.9    25.7    25.6    25.3    25.0    24.8    24.6    24.3    24.0
 2013 291   127    26.0    25.9    25.8    25.6    25.5    25.2    24.9    24.7    24.5    24.2    23.9
 2013 292   128    26.0    26.0    25.8    25.7    25.5    25.2    25.0    24.7    24.5    24.2    23.9
 2013 293   129    25.8    25.8    25.6    25.5    25.3    25.1    24.8    24.6    24.4    24.1    23.8
 2013 294   130    26.0    25.9    25.8    25.6    25.4    25.2    24.9    24.7    24.4    24.2    23.9
 2013 295   131    26.2    26.1    26.0    25.8    25.6    25.4    25.1    24.8    24.6    24.3    24.0
 2013 296   132    26.3    26.3    26.1    26.0    25.8    25.5    25.2    25.0    24.7    24.4    24.1
 2013 297   133    26.2    26.1    26.0    25.8    25.6    25.3    25.1    24.8    24.6    24.3    24.0
 2013 298   134    26.1    26.0    25.9    25.7    25.5    25.3    25.0    24.7    24.5    24.2    23.9
 2013 299   135    26.1    26.0    25.8    25.7    25.5    25.2    25.0    24.7    24.5    24.2    23.9
 2013 300   136    25.9    25.9    25.7    25.6    25.4    25.1    24.9    24.6    24.4    24.1    23.8
 2013 301   137    26.0    25.9    25.8    25.6    25.4    25.1    24.9    24.6    24.4    24.1    23.8
 2013 302   138    26.2    26.1    26.0    25.8    25.6    25.3    25.0    24.8    24.5    24.2    23.9
 2013 303   139    26.3    26.3    26.1    26.0    25.7    25.4    25.2    24.9    24.6    24.3    24.0
 2013 304   140    26.8    26.7    26.6    26.4    26.2    25.8    25.5    25.2    24.9    24.6    24.3

*DSSAT Cropping System Model Ver. 4.7.5.008 -release  JAN 07, 2021 20:14:52

*RUN  68        : ERiMA DCC1                MZCER047 ETMZawas    1
 MODEL          : MZCER047 - Maize
 EXPERIMENT     : ETMZawas SN MELKSSAL
 DATA PATH      : C:\IRI\Python_Dash\ET_DSS_hist\TEST\
 TREATMENT  1   : ERiMA DCC1                MZCER047
  
! TAV  =    20.3
! TAMP =     1.9
!               Temperature (oC) by soil depth (cm):
!               Surface     0-5    5-15   15-20   20-35   35-50   50-65   65-81   81-97  97-118 118-200
@YEAR DOY   DAS    TS0D    TS1D    TS2D    TS3D    TS4D    TS5D    TS6D    TS7D    TS8D    TS9D    TS10
 2014 165     1    25.1    25.0    24.9    24.7    24.5    24.2    24.0    23.7    23.5    23.2    22.9
 2014 166     2    25.2    25.2    25.0    24.9    24.7    24.4    24.1    23.8    23.6    23.3    23.0
 2014 167     3    25.3    25.2    25.1    24.9    24.7    24.4    24.2    23.9    23.6    23.4    23.1
 2014 168     4    25.6    25.6    25.4    25.2    25.0    24.7    24.4    24.2    23.9    23.6    23.3
 2014 169     5    25.9    25.9    25.7    25.5    25.3    25.0    24.7    24.4    24.1    23.8    23.4
 2014 170     6    25.9    25.8    25.6    25.5    25.2    24.9    24.6    24.3    24.0    23.7    23.4
 2014 171     7    25.8    25.8    25.6    25.4    25.2    24.9    24.6    24.3    24.0    23.7    23.4
 2014 172     8    25.6    25.6    25.4    25.2    25.0    24.7    24.4    24.1    23.9    23.6    23.3
 2014 173     9    25.1    25.0    24.9    24.7    24.5    24.3    24.0    23.8    23.5    23.3    23.0
 2014 174    10    24.8    24.7    24.6    24.4    24.3    24.0    23.8    23.5    23.3    23.0    22.8
 2014 175    11    24.3    24.3    24.1    24.0    23.8    23.6    23.4    23.2    23.0    22.8    22.5
 2014 176    12    24.2    24.2    24.0    23.9    23.8    23.5    23.3    23.1    22.9    22.7    22.5
 2014 177    13    24.2    24.1    24.0    23.9    23.7    23.5    23.3    23.1    22.9    22.7    22.4
 2014 178    14    24.3    24.3    24.2    24.0    23.9    23.6    23.4    23.2    23.0    22.8    22.5
 2014 179    15    24.4    24.4    24.2    24.1    24.0    23.7    23.5    23.3    23.1    22.8    22.6
 2014 180    16    24.9    24.8    24.7    24.5    24.4    24.1    23.8    23.6    23.4    23.1    22.9
 2014 181    17    25.1    25.0    24.9    24.7    24.5    24.3    24.0    23.8    23.5    23.3    23.0
 2014 182    18    25.3    25.2    25.1    24.9    24.7    24.5    24.2    23.9    23.7    23.4    23.1
 2014 183    19    25.1    25.1    24.9    24.8    24.6    24.3    24.0    23.8    23.6    23.3    23.0
 2014 184    20    24.9    24.9    24.7    24.6    24.4    24.2    23.9    23.7    23.4    23.2    22.9
 2014 185    21    25.0    25.0    24.8    24.7    24.5    24.2    24.0    23.7    23.5    23.2    23.0
 2014 186    22    24.8    24.7    24.6    24.5    24.3    24.0    23.8    23.6    23.3    23.1    22.8
 2014 187    23    24.6    24.6    24.4    24.3    24.1    23.9    23.7    23.4    23.2    23.0    22.7
 2014 188    24    24.6    24.6    24.5    24.3    24.2    23.9    23.7    23.5    23.2    23.0    22.8
 2014 189    25    24.6    24.6    24.5    24.3    24.2    23.9    23.7    23.5    23.3    23.0    22.8
 2014 190    26    24.2    24.2    24.1    24.0    23.8    23.6    23.4    23.2    23.0    22.8    22.5
 2014 191    27    23.9    23.8    23.7    23.6    23.5    23.3    23.1    22.9    22.7    22.5    22.3
 2014 192    28    23.5    23.5    23.4    23.3    23.1    23.0    22.8    22.6    22.5    22.3    22.1
 2014 193    29    23.5    23.4    23.3    23.2    23.1    22.9    22.8    22.6    22.4    22.3    22.1
 2014 194    30    23.6    23.5    23.4    23.3    23.2    23.0    22.8    22.7    22.5    22.3    22.1
 2014 195    31    23.8    23.8    23.7    23.5    23.4    23.2    23.0    22.9    22.7    22.5    22.3
 2014 196    32    24.1    24.0    23.9    23.8    23.7    23.5    23.3    23.1    22.9    22.7    22.5
 2014 197    33    24.7    24.7    24.5    24.4    24.2    24.0    23.8    23.5    23.3    23.1    22.8
 2014 198    34    24.7    24.6    24.5    24.4    24.2    24.0    23.8    23.5    23.3    23.1    22.8
 2014 199    35    24.5    24.5    24.4    24.3    24.1    23.9    23.6    23.4    23.2    23.0    22.8
 2014 200    36    24.7    24.7    24.5    24.4    24.3    24.0    23.8    23.6    23.3    23.1    22.9
 2014 201    37    25.0    24.9    24.8    24.6    24.5    24.2    24.0    23.7    23.5    23.3    23.0
 2014 202    38    24.6    24.5    24.4    24.3    24.1    23.9    23.7    23.5    23.3    23.0    22.8
 2014 203    39    24.3    24.3    24.1    24.0    23.9    23.7    23.5    23.3    23.1    22.9    22.6
 2014 204    40    24.3    24.3    24.2    24.1    23.9    23.7    23.5    23.3    23.1    22.9    22.7
 2014 205    41    23.9    23.9    23.8    23.7    23.6    23.4    23.2    23.0    22.8    22.6    22.4
 2014 206    42    23.5    23.5    23.4    23.3    23.2    23.0    22.9    22.7    22.6    22.4    22.2
 2014 207    43    23.7    23.7    23.6    23.5    23.4    23.2    23.0    22.9    22.7    22.5    22.3
 2014 208    44    24.2    24.2    24.1    24.0    23.8    23.6    23.4    23.2    23.1    22.8    22.6
 2014 209    45    24.7    24.6    24.5    24.4    24.2    24.0    23.8    23.6    23.4    23.1    22.9
 2014 210    46    24.7    24.6    24.5    24.4    24.2    24.0    23.8    23.6    23.4    23.1    22.9
 2014 211    47    24.8    24.8    24.6    24.5    24.4    24.1    23.9    23.7    23.5    23.2    23.0
 2014 212    48    24.7    24.7    24.6    24.4    24.3    24.0    23.8    23.6    23.4    23.2    22.9
 2014 213    49    24.3    24.3    24.2    24.1    23.9    23.7    23.5    23.3    23.1    22.9    22.7
 2014 214    50    23.8    23.8    23.7    23.6    23.4    23.3    23.1    22.9    22.7    22.6    22.4
 2014 215    51    24.0    24.0    23.9    23.8    23.6    23.4    23.2    23.1    22.9    22.7    22.5
 2014 216    52    24.0    24.0    23.9    23.8    23.7    23.5    23.3    23.1    22.9    22.7    22.5
 2014 217    53    24.1    24.1    24.0    23.9    23.8    23.6    23.4    23.2    23.0    22.8    22.6
 2014 218    54    24.4    24.3    24.2    24.1    24.0    23.7    23.5    23.3    23.1    22.9    22.7
 2014 219    55    24.3    24.2    24.1    24.0    23.9    23.7    23.5    23.3    23.1    22.9    22.7
 2014 220    56    24.1    24.0    23.9    23.8    23.7    23.5    23.3    23.1    23.0    22.8    22.5
 2014 221    57    24.0    23.9    23.8    23.7    23.6    23.4    23.2    23.1    22.9    22.7    22.5
 2014 222    58    23.8    23.8    23.7    23.6    23.4    23.3    23.1    22.9    22.8    22.6    22.4
 2014 223    59    23.8    23.8    23.7    23.6    23.5    23.3    23.1    23.0    22.8    22.6    22.4
 2014 224    60    23.9    23.9    23.8    23.7    23.6    23.4    23.2    23.1    22.9    22.7    22.5
 2014 225    61    24.0    24.0    23.9    23.8    23.6    23.5    23.3    23.1    22.9    22.8    22.5
 2014 226    62    24.0    24.0    23.9    23.8    23.7    23.5    23.3    23.1    23.0    22.8    22.6
 2014 227    63    24.1    24.0    23.9    23.8    23.7    23.5    23.3    23.2    23.0    22.8    22.6
 2014 228    64    24.0    23.9    23.8    23.7    23.6    23.4    23.3    23.1    22.9    22.7    22.5
 2014 229    65    23.9    23.8    23.8    23.7    23.5    23.4    23.2    23.0    22.9    22.7    22.5
 2014 230    66    24.1    24.0    23.9    23.8    23.7    23.5    23.3    23.2    23.0    22.8    22.6
 2014 231    67    24.3    24.2    24.1    24.0    23.9    23.7    23.5    23.3    23.2    23.0    22.7
 2014 232    68    24.6    24.5    24.4    24.3    24.2    23.9    23.7    23.6    23.4    23.1    22.9
 2014 233    69    25.0    24.9    24.8    24.7    24.5    24.3    24.1    23.9    23.7    23.4    23.2
 2014 234    70    25.1    25.1    25.0    24.8    24.7    24.4    24.2    24.0    23.8    23.5    23.3
 2014 235    71    25.3    25.2    25.1    25.0    24.8    24.6    24.3    24.1    23.9    23.6    23.4
 2014 236    72    25.5    25.4    25.3    25.2    25.0    24.7    24.5    24.3    24.0    23.8    23.5
 2014 237    73    25.6    25.6    25.4    25.3    25.1    24.9    24.6    24.4    24.1    23.9    23.6
 2014 238    74    25.1    25.0    24.9    24.8    24.6    24.4    24.2    24.0    23.7    23.5    23.3
 2014 239    75    25.3    25.3    25.1    25.0    24.8    24.6    24.4    24.2    23.9    23.7    23.4
 2014 240    76    25.4    25.3    25.2    25.1    24.9    24.6    24.4    24.2    24.0    23.7    23.4
 2014 241    77    24.8    24.8    24.7    24.5    24.4    24.2    24.0    23.8    23.6    23.4    23.1
 2014 242    78    24.5    24.5    24.4    24.3    24.2    24.0    23.8    23.6    23.4    23.2    23.0
 2014 243    79    24.9    24.9    24.8    24.6    24.5    24.3    24.1    23.9    23.7    23.5    23.2
 2014 244    80    24.5    24.5    24.4    24.3    24.2    24.0    23.8    23.6    23.4    23.2    23.0
 2014 245    81    24.0    23.9    23.8    23.8    23.6    23.5    23.3    23.2    23.0    22.8    22.6
 2014 246    82    24.1    24.1    24.0    23.9    23.8    23.6    23.5    23.3    23.1    22.9    22.7
 2014 247    83    24.0    24.0    23.9    23.8    23.7    23.5    23.4    23.2    23.0    22.9    22.7
 2014 248    84    23.9    23.9    23.8    23.7    23.6    23.4    23.3    23.1    23.0    22.8    22.6
 2014 249    85    23.8    23.8    23.7    23.7    23.5    23.4    23.2    23.1    22.9    22.8    22.6
 2014 250    86    24.2    24.2    24.1    24.0    23.9    23.7    23.5    23.4    23.2    23.0    22.8
 2014 251    87    24.4    24.4    24.3    24.2    24.0    23.9    23.7    23.5    23.3    23.1    22.9
 2014 252    88    24.5    24.5    24.4    24.3    24.2    24.0    23.8    23.6    23.4    23.2    23.0
 2014 253    89    24.7    24.7    24.6    24.5    24.3    24.1    23.9    23.8    23.6    23.4    23.1
 2014 254    90    25.0    24.9    24.8    24.7    24.6    24.3    24.1    23.9    23.7    23.5    23.3
 2014 255    91    24.8    24.8    24.7    24.5    24.4    24.2    24.0    23.8    23.6    23.4    23.2
 2014 256    92    24.8    24.7    24.6    24.5    24.4    24.2    24.0    23.8    23.6    23.4    23.2
 2014 257    93    24.7    24.7    24.6    24.5    24.3    24.1    23.9    23.7    23.6    23.4    23.1
 2014 258    94    24.7    24.6    24.5    24.4    24.3    24.1    23.9    23.7    23.5    23.3    23.1
 2014 259    95    24.6    24.6    24.5    24.4    24.3    24.1    23.9    23.7    23.5    23.3    23.1
 2014 260    96    25.1    25.0    24.9    24.8    24.7    24.4    24.2    24.0    23.8    23.6    23.4
 2014 261    97    25.2    25.1    25.0    24.9    24.7    24.5    24.3    24.1    23.9    23.7    23.4
 2014 262    98    25.2    25.1    25.0    24.9    24.7    24.5    24.3    24.1    23.9    23.7    23.4
 2014 263    99    25.1    25.1    25.0    24.9    24.7    24.5    24.3    24.1    23.9    23.6    23.4
 2014 264   100    25.2    25.1    25.0    24.9    24.7    24.5    24.3    24.1    23.9    23.7    23.4
 2014 265   101    24.9    24.8    24.7    24.6    24.5    24.3    24.1    23.9    23.7    23.5    23.3
 2014 266   102    24.7    24.6    24.5    24.4    24.3    24.1    23.9    23.7    23.6    23.4    23.1
 2014 267   103    24.7    24.7    24.6    24.5    24.3    24.2    24.0    23.8    23.6    23.4    23.2
 2014 268   104    24.9    24.9    24.8    24.7    24.5    24.3    24.1    23.9    23.7    23.5    23.3
 2014 269   105    24.7    24.6    24.5    24.4    24.3    24.1    23.9    23.7    23.6    23.4    23.1
 2014 270   106    24.8    24.8    24.7    24.6    24.4    24.2    24.1    23.9    23.7    23.5    23.2
 2014 271   107    25.0    25.0    24.9    24.8    24.6    24.4    24.2    24.0    23.8    23.6    23.4
 2014 272   108    25.1    25.1    25.0    24.9    24.7    24.5    24.3    24.1    23.9    23.7    23.4
 2014 273   109    25.2    25.2    25.1    24.9    24.8    24.6    24.4    24.2    24.0    23.7    23.5
 2014 274   110    25.6    25.6    25.5    25.3    25.2    24.9    24.7    24.5    24.3    24.0    23.7
 2014 275   111    25.3    25.2    25.1    25.0    24.8    24.6    24.4    24.2    24.0    23.8    23.5
 2014 276   112    25.1    25.1    25.0    24.8    24.7    24.5    24.3    24.1    23.9    23.7    23.4
 2014 277   113    25.1    25.0    24.9    24.8    24.7    24.5    24.3    24.1    23.9    23.7    23.4
 2014 278   114    24.6    24.6    24.5    24.4    24.3    24.1    23.9    23.7    23.5    23.4    23.1
 2014 279   115    24.5    24.5    24.4    24.3    24.2    24.0    23.8    23.6    23.5    23.3    23.1
 2014 280   116    24.9    24.9    24.8    24.7    24.5    24.3    24.1    23.9    23.8    23.5    23.3
 2014 281   117    25.0    25.0    24.9    24.8    24.6    24.4    24.2    24.0    23.9    23.6    23.4
 2014 282   118    25.2    25.2    25.1    25.0    24.8    24.6    24.4    24.2    24.0    23.8    23.5
 2014 283   119    25.7    25.6    25.5    25.4    25.2    25.0    24.7    24.5    24.3    24.1    23.8
 2014 284   120    25.9    25.9    25.8    25.6    25.5    25.2    25.0    24.7    24.5    24.2    24.0
 2014 285   121    26.0    25.9    25.8    25.6    25.5    25.2    25.0    24.7    24.5    24.2    24.0
 2014 286   122    26.2    26.2    26.0    25.9    25.7    25.5    25.2    24.9    24.7    24.4    24.1
 2014 287   123    26.4    26.4    26.2    26.1    25.9    25.6    25.3    25.1    24.8    24.5    24.2
 2014 288   124    26.4    26.4    26.2    26.1    25.9    25.6    25.4    25.1    24.8    24.6    24.2
 2014 289   125    26.3    26.3    26.1    26.0    25.8    25.5    25.3    25.0    24.8    24.5    24.2
 2014 290   126    26.6    26.5    26.4    26.2    26.0    25.7    25.5    25.2    24.9    24.6    24.3
 2014 291   127    26.8    26.8    26.6    26.4    26.2    25.9    25.6    25.4    25.1    24.8    24.5
 2014 292   128    26.7    26.6    26.5    26.3    26.1    25.8    25.5    25.3    25.0    24.7    24.4
 2014 293   129    26.7    26.7    26.5    26.4    26.2    25.9    25.6    25.3    25.0    24.7    24.4
 2014 294   130    26.8    26.7    26.5    26.4    26.2    25.9    25.6    25.3    25.1    24.8    24.4
 2014 295   131    26.6    26.5    26.4    26.2    26.0    25.7    25.5    25.2    24.9    24.6    24.3
 2014 296   132    26.4    26.3    26.1    26.0    25.8    25.5    25.3    25.0    24.8    24.5    24.2
 2014 297   133    26.5    26.4    26.3    26.1    25.9    25.6    25.4    25.1    24.8    24.6    24.3
