*WATER BALANCE OUTPUT FILE

*DSSAT Cropping System Model Ver. 4.7.5.008 -release  JAN 07, 2021 20:14:37

*RUN   1        : ERiMA DCC1                MZCER047 ETMZmelk    1
 MODEL          : MZCER047 - Maize
 EXPERIMENT     : ETMZmelk SN MELKSSAL
 DATA PATH      : C:\IRI\Python_Dash\ET_DSS_hist\TEST\
 TREATMENT  1   : ERiMA DCC1                MZCER047
  

!     WATER BALANCE PARAMETERS
!     ========================                 --mm--

!     Soil H20 (start) on Year/day 1981/165    586.18
!     Soil H20 (final) on Year/day 1981/305    489.00
!     Effective Irrigation                       0.00
!     Precipitation                            496.40
!     Water added with new mulch                 0.00
!     Drainage                                  73.60
!     Tiledrain flow                             0.00
!     Runoff                                    32.39
!     Mulch evaporation                          0.00
!     Soil Evaporation                         102.99
!     Transpiration                            384.58
!     Potential ET                             660.21

!     Initial mulch water content                0.00
!     Final mulch water content                  0.00

!     Final Balance                             0.012


*DSSAT Cropping System Model Ver. 4.7.5.008 -release  JAN 07, 2021 20:14:37

*RUN   2        : ERiMA DCC1                MZCER047 ETMZmelk    1
 MODEL          : MZCER047 - Maize
 EXPERIMENT     : ETMZmelk SN MELKSSAL
 DATA PATH      : C:\IRI\Python_Dash\ET_DSS_hist\TEST\
 TREATMENT  1   : ERiMA DCC1                MZCER047
  

!     WATER BALANCE PARAMETERS
!     ========================                 --mm--

!     Soil H20 (start) on Year/day 1982/165    586.18
!     Soil H20 (final) on Year/day 1982/305    491.10
!     Effective Irrigation                       0.00
!     Precipitation                            437.70
!     Water added with new mulch                 0.00
!     Drainage                                  42.01
!     Tiledrain flow                             0.00
!     Runoff                                    31.68
!     Mulch evaporation                          0.00
!     Soil Evaporation                         121.57
!     Transpiration                            337.51
!     Potential ET                             674.24

!     Initial mulch water content                0.00
!     Final mulch water content                  0.00

!     Final Balance                             0.011


*DSSAT Cropping System Model Ver. 4.7.5.008 -release  JAN 07, 2021 20:14:37

*RUN   3        : ERiMA DCC1                MZCER047 ETMZmelk    1
 MODEL          : MZCER047 - Maize
 EXPERIMENT     : ETMZmelk SN MELKSSAL
 DATA PATH      : C:\IRI\Python_Dash\ET_DSS_hist\TEST\
 TREATMENT  1   : ERiMA DCC1                MZCER047
  

!     WATER BALANCE PARAMETERS
!     ========================                 --mm--

!     Soil H20 (start) on Year/day 1983/165    586.18
!     Soil H20 (final) on Year/day 1983/302    496.49
!     Effective Irrigation                       0.00
!     Precipitation                            462.30
!     Water added with new mulch                 0.00
!     Drainage                                  50.10
!     Tiledrain flow                             0.00
!     Runoff                                    20.58
!     Mulch evaporation                          0.00
!     Soil Evaporation                         119.19
!     Transpiration                            362.11
!     Potential ET                             625.10

!     Initial mulch water content                0.00
!     Final mulch water content                  0.00

!     Final Balance                             0.011


*DSSAT Cropping System Model Ver. 4.7.5.008 -release  JAN 07, 2021 20:14:37

*RUN   4        : ERiMA DCC1                MZCER047 ETMZmelk    1
 MODEL          : MZCER047 - Maize
 EXPERIMENT     : ETMZmelk SN MELKSSAL
 DATA PATH      : C:\IRI\Python_Dash\ET_DSS_hist\TEST\
 TREATMENT  1   : ERiMA DCC1                MZCER047
  

!     WATER BALANCE PARAMETERS
!     ========================                 --mm--

!     Soil H20 (start) on Year/day 1984/165    586.18
!     Soil H20 (final) on Year/day 1984/296    490.56
!     Effective Irrigation                       0.00
!     Precipitation                            335.30
!     Water added with new mulch                 0.00
!     Drainage                                  18.12
!     Tiledrain flow                             0.00
!     Runoff                                     6.73
!     Mulch evaporation                          0.00
!     Soil Evaporation                         111.23
!     Transpiration                            294.82
!     Potential ET                             645.04

!     Initial mulch water content                0.00
!     Final mulch water content                  0.00

!     Final Balance                             0.010


*DSSAT Cropping System Model Ver. 4.7.5.008 -release  JAN 07, 2021 20:14:37

*RUN   5        : ERiMA DCC1                MZCER047 ETMZmelk    1
 MODEL          : MZCER047 - Maize
 EXPERIMENT     : ETMZmelk SN MELKSSAL
 DATA PATH      : C:\IRI\Python_Dash\ET_DSS_hist\TEST\
 TREATMENT  1   : ERiMA DCC1                MZCER047
  

!     WATER BALANCE PARAMETERS
!     ========================                 --mm--

!     Soil H20 (start) on Year/day 1985/165    586.18
!     Soil H20 (final) on Year/day 1985/311    484.74
!     Effective Irrigation                       0.00
!     Precipitation                            610.30
!     Water added with new mulch                 0.00
!     Drainage                                 163.28
!     Tiledrain flow                             0.00
!     Runoff                                    53.86
!     Mulch evaporation                          0.00
!     Soil Evaporation                         175.01
!     Transpiration                            319.60
!     Potential ET                             691.26

!     Initial mulch water content                0.00
!     Final mulch water content                  0.00

!     Final Balance                             0.003


*DSSAT Cropping System Model Ver. 4.7.5.008 -release  JAN 07, 2021 20:14:37

*RUN   6        : ERiMA DCC1                MZCER047 ETMZmelk    1
 MODEL          : MZCER047 - Maize
 EXPERIMENT     : ETMZmelk SN MELKSSAL
 DATA PATH      : C:\IRI\Python_Dash\ET_DSS_hist\TEST\
 TREATMENT  1   : ERiMA DCC1                MZCER047
  

!     WATER BALANCE PARAMETERS
!     ========================                 --mm--

!     Soil H20 (start) on Year/day 1986/165    586.18
!     Soil H20 (final) on Year/day 1986/293    488.87
!     Effective Irrigation                       0.00
!     Precipitation                            378.90
!     Water added with new mulch                 0.00
!     Drainage                                  14.03
!     Tiledrain flow                             0.00
!     Runoff                                    19.57
!     Mulch evaporation                          0.00
!     Soil Evaporation                         161.74
!     Transpiration                            280.87
!     Potential ET                             574.78

!     Initial mulch water content                0.00
!     Final mulch water content                  0.00

!     Final Balance                             0.008


*DSSAT Cropping System Model Ver. 4.7.5.008 -release  JAN 07, 2021 20:14:37

*RUN   7        : ERiMA DCC1                MZCER047 ETMZmelk    1
 MODEL          : MZCER047 - Maize
 EXPERIMENT     : ETMZmelk SN MELKSSAL
 DATA PATH      : C:\IRI\Python_Dash\ET_DSS_hist\TEST\
 TREATMENT  1   : ERiMA DCC1                MZCER047
  

!     WATER BALANCE PARAMETERS
!     ========================                 --mm--

!     Soil H20 (start) on Year/day 1987/165    586.18
!     Soil H20 (final) on Year/day 1987/292    486.11
!     Effective Irrigation                       0.00
!     Precipitation                            288.50
!     Water added with new mulch                 0.00
!     Drainage                                   6.65
!     Tiledrain flow                             0.00
!     Runoff                                    30.40
!     Mulch evaporation                          0.00
!     Soil Evaporation                          94.27
!     Transpiration                            257.24
!     Potential ET                             616.13

!     Initial mulch water content                0.00
!     Final mulch water content                  0.00

!     Final Balance                             0.011


*DSSAT Cropping System Model Ver. 4.7.5.008 -release  JAN 07, 2021 20:14:37

*RUN   8        : ERiMA DCC1                MZCER047 ETMZmelk    1
 MODEL          : MZCER047 - Maize
 EXPERIMENT     : ETMZmelk SN MELKSSAL
 DATA PATH      : C:\IRI\Python_Dash\ET_DSS_hist\TEST\
 TREATMENT  1   : ERiMA DCC1                MZCER047
  

!     WATER BALANCE PARAMETERS
!     ========================                 --mm--

!     Soil H20 (start) on Year/day 1988/165    586.18
!     Soil H20 (final) on Year/day 1988/304    494.52
!     Effective Irrigation                       0.00
!     Precipitation                            570.90
!     Water added with new mulch                 0.00
!     Drainage                                 136.90
!     Tiledrain flow                             0.00
!     Runoff                                    48.78
!     Mulch evaporation                          0.00
!     Soil Evaporation                         128.09
!     Transpiration                            348.78
!     Potential ET                             600.67

!     Initial mulch water content                0.00
!     Final mulch water content                  0.00

!     Final Balance                             0.013


*DSSAT Cropping System Model Ver. 4.7.5.008 -release  JAN 07, 2021 20:14:37

*RUN   9        : ERiMA DCC1                MZCER047 ETMZmelk    1
 MODEL          : MZCER047 - Maize
 EXPERIMENT     : ETMZmelk SN MELKSSAL
 DATA PATH      : C:\IRI\Python_Dash\ET_DSS_hist\TEST\
 TREATMENT  1   : ERiMA DCC1                MZCER047
  

!     WATER BALANCE PARAMETERS
!     ========================                 --mm--

!     Soil H20 (start) on Year/day 1989/165    586.18
!     Soil H20 (final) on Year/day 1989/301    495.29
!     Effective Irrigation                       0.00
!     Precipitation                            556.40
!     Water added with new mulch                 0.00
!     Drainage                                 112.83
!     Tiledrain flow                             0.00
!     Runoff                                    40.30
!     Mulch evaporation                          0.00
!     Soil Evaporation                         126.06
!     Transpiration                            368.09
!     Potential ET                             639.71

!     Initial mulch water content                0.00
!     Final mulch water content                  0.00

!     Final Balance                             0.012


*DSSAT Cropping System Model Ver. 4.7.5.008 -release  JAN 07, 2021 20:14:37

*RUN  10        : ERiMA DCC1                MZCER047 ETMZmelk    1
 MODEL          : MZCER047 - Maize
 EXPERIMENT     : ETMZmelk SN MELKSSAL
 DATA PATH      : C:\IRI\Python_Dash\ET_DSS_hist\TEST\
 TREATMENT  1   : ERiMA DCC1                MZCER047
  

!     WATER BALANCE PARAMETERS
!     ========================                 --mm--

!     Soil H20 (start) on Year/day 1990/165    586.18
!     Soil H20 (final) on Year/day 1990/300    492.05
!     Effective Irrigation                       0.00
!     Precipitation                            457.40
!     Water added with new mulch                 0.00
!     Drainage                                  22.77
!     Tiledrain flow                             0.00
!     Runoff                                    59.67
!     Mulch evaporation                          0.00
!     Soil Evaporation                         110.20
!     Transpiration                            358.88
!     Potential ET                             644.76

!     Initial mulch water content                0.00
!     Final mulch water content                  0.00

!     Final Balance                             0.014


*DSSAT Cropping System Model Ver. 4.7.5.008 -release  JAN 07, 2021 20:14:37

*RUN  11        : ERiMA DCC1                MZCER047 ETMZmelk    1
 MODEL          : MZCER047 - Maize
 EXPERIMENT     : ETMZmelk SN MELKSSAL
 DATA PATH      : C:\IRI\Python_Dash\ET_DSS_hist\TEST\
 TREATMENT  1   : ERiMA DCC1                MZCER047
  

!     WATER BALANCE PARAMETERS
!     ========================                 --mm--

!     Soil H20 (start) on Year/day 1991/165    586.18
!     Soil H20 (final) on Year/day 1991/292    491.91
!     Effective Irrigation                       0.00
!     Precipitation                            400.80
!     Water added with new mulch                 0.00
!     Drainage                                  34.02
!     Tiledrain flow                             0.00
!     Runoff                                    34.29
!     Mulch evaporation                          0.00
!     Soil Evaporation                         112.58
!     Transpiration                            314.17
!     Potential ET                             623.47

!     Initial mulch water content                0.00
!     Final mulch water content                  0.00

!     Final Balance                             0.013


*DSSAT Cropping System Model Ver. 4.7.5.008 -release  JAN 07, 2021 20:14:37

*RUN  12        : ERiMA DCC1                MZCER047 ETMZmelk    1
 MODEL          : MZCER047 - Maize
 EXPERIMENT     : ETMZmelk SN MELKSSAL
 DATA PATH      : C:\IRI\Python_Dash\ET_DSS_hist\TEST\
 TREATMENT  1   : ERiMA DCC1                MZCER047
  

!     WATER BALANCE PARAMETERS
!     ========================                 --mm--

!     Soil H20 (start) on Year/day 1992/165    586.18
!     Soil H20 (final) on Year/day 1992/305    495.81
!     Effective Irrigation                       0.00
!     Precipitation                            655.00
!     Water added with new mulch                 0.00
!     Drainage                                 129.59
!     Tiledrain flow                             0.00
!     Runoff                                    73.73
!     Mulch evaporation                          0.00
!     Soil Evaporation                         149.76
!     Transpiration                            392.28
!     Potential ET                             640.55

!     Initial mulch water content                0.00
!     Final mulch water content                  0.00

!     Final Balance                             0.016


*DSSAT Cropping System Model Ver. 4.7.5.008 -release  JAN 07, 2021 20:14:37

*RUN  13        : ERiMA DCC1                MZCER047 ETMZmelk    1
 MODEL          : MZCER047 - Maize
 EXPERIMENT     : ETMZmelk SN MELKSSAL
 DATA PATH      : C:\IRI\Python_Dash\ET_DSS_hist\TEST\
 TREATMENT  1   : ERiMA DCC1                MZCER047
  

!     WATER BALANCE PARAMETERS
!     ========================                 --mm--

!     Soil H20 (start) on Year/day 1993/165    586.18
!     Soil H20 (final) on Year/day 1993/301    512.48
!     Effective Irrigation                       0.00
!     Precipitation                            582.20
!     Water added with new mulch                 0.00
!     Drainage                                  91.64
!     Tiledrain flow                             0.00
!     Runoff                                    66.03
!     Mulch evaporation                          0.00
!     Soil Evaporation                         118.26
!     Transpiration                            379.95
!     Potential ET                             639.23

!     Initial mulch water content                0.00
!     Final mulch water content                  0.00

!     Final Balance                             0.015


*DSSAT Cropping System Model Ver. 4.7.5.008 -release  JAN 07, 2021 20:14:37

*RUN  14        : ERiMA DCC1                MZCER047 ETMZmelk    1
 MODEL          : MZCER047 - Maize
 EXPERIMENT     : ETMZmelk SN MELKSSAL
 DATA PATH      : C:\IRI\Python_Dash\ET_DSS_hist\TEST\
 TREATMENT  1   : ERiMA DCC1                MZCER047
  

!     WATER BALANCE PARAMETERS
!     ========================                 --mm--

!     Soil H20 (start) on Year/day 1994/165    586.18
!     Soil H20 (final) on Year/day 1994/299    492.92
!     Effective Irrigation                       0.00
!     Precipitation                            484.70
!     Water added with new mulch                 0.00
!     Drainage                                  75.12
!     Tiledrain flow                             0.00
!     Runoff                                    40.99
!     Mulch evaporation                          0.00
!     Soil Evaporation                         146.05
!     Transpiration                            315.78
!     Potential ET                             639.89

!     Initial mulch water content                0.00
!     Final mulch water content                  0.00

!     Final Balance                             0.015


*DSSAT Cropping System Model Ver. 4.7.5.008 -release  JAN 07, 2021 20:14:37

*RUN  15        : ERiMA DCC1                MZCER047 ETMZmelk    1
 MODEL          : MZCER047 - Maize
 EXPERIMENT     : ETMZmelk SN MELKSSAL
 DATA PATH      : C:\IRI\Python_Dash\ET_DSS_hist\TEST\
 TREATMENT  1   : ERiMA DCC1                MZCER047
  

!     WATER BALANCE PARAMETERS
!     ========================                 --mm--

!     Soil H20 (start) on Year/day 1995/165    586.18
!     Soil H20 (final) on Year/day 1995/295    494.74
!     Effective Irrigation                       0.00
!     Precipitation                            481.90
!     Water added with new mulch                 0.00
!     Drainage                                  73.81
!     Tiledrain flow                             0.00
!     Runoff                                    37.23
!     Mulch evaporation                          0.00
!     Soil Evaporation                         127.51
!     Transpiration                            334.78
!     Potential ET                             599.11

!     Initial mulch water content                0.00
!     Final mulch water content                  0.00

!     Final Balance                             0.013


*DSSAT Cropping System Model Ver. 4.7.5.008 -release  JAN 07, 2021 20:14:37

*RUN  16        : ERiMA DCC1                MZCER047 ETMZmelk    1
 MODEL          : MZCER047 - Maize
 EXPERIMENT     : ETMZmelk SN MELKSSAL
 DATA PATH      : C:\IRI\Python_Dash\ET_DSS_hist\TEST\
 TREATMENT  1   : ERiMA DCC1                MZCER047
  

!     WATER BALANCE PARAMETERS
!     ========================                 --mm--

!     Soil H20 (start) on Year/day 1996/165    586.18
!     Soil H20 (final) on Year/day 1996/302    490.48
!     Effective Irrigation                       0.00
!     Precipitation                            462.70
!     Water added with new mulch                 0.00
!     Drainage                                  75.79
!     Tiledrain flow                             0.00
!     Runoff                                    37.43
!     Mulch evaporation                          0.00
!     Soil Evaporation                         127.30
!     Transpiration                            317.87
!     Potential ET                             622.22

!     Initial mulch water content                0.00
!     Final mulch water content                  0.00

!     Final Balance                             0.015


*DSSAT Cropping System Model Ver. 4.7.5.008 -release  JAN 07, 2021 20:14:37

*RUN  17        : ERiMA DCC1                MZCER047 ETMZmelk    1
 MODEL          : MZCER047 - Maize
 EXPERIMENT     : ETMZmelk SN MELKSSAL
 DATA PATH      : C:\IRI\Python_Dash\ET_DSS_hist\TEST\
 TREATMENT  1   : ERiMA DCC1                MZCER047
  

!     WATER BALANCE PARAMETERS
!     ========================                 --mm--

!     Soil H20 (start) on Year/day 1997/165    586.18
!     Soil H20 (final) on Year/day 1997/290    488.77
!     Effective Irrigation                       0.00
!     Precipitation                            533.70
!     Water added with new mulch                 0.00
!     Drainage                                  79.79
!     Tiledrain flow                             0.00
!     Runoff                                    58.14
!     Mulch evaporation                          0.00
!     Soil Evaporation                         193.81
!     Transpiration                            299.37
!     Potential ET                             606.52

!     Initial mulch water content                0.00
!     Final mulch water content                  0.00

!     Final Balance                             0.004


*DSSAT Cropping System Model Ver. 4.7.5.008 -release  JAN 07, 2021 20:14:37

*RUN  18        : ERiMA DCC1                MZCER047 ETMZmelk    1
 MODEL          : MZCER047 - Maize
 EXPERIMENT     : ETMZmelk SN MELKSSAL
 DATA PATH      : C:\IRI\Python_Dash\ET_DSS_hist\TEST\
 TREATMENT  1   : ERiMA DCC1                MZCER047
  

!     WATER BALANCE PARAMETERS
!     ========================                 --mm--

!     Soil H20 (start) on Year/day 1998/165    586.18
!     Soil H20 (final) on Year/day 1998/300    537.43
!     Effective Irrigation                       0.00
!     Precipitation                            756.80
!     Water added with new mulch                 0.00
!     Drainage                                 202.86
!     Tiledrain flow                             0.00
!     Runoff                                   100.98
!     Mulch evaporation                          0.00
!     Soil Evaporation                         123.05
!     Transpiration                            378.65
!     Potential ET                             583.87

!     Initial mulch water content                0.00
!     Final mulch water content                  0.00

!     Final Balance                             0.008


*DSSAT Cropping System Model Ver. 4.7.5.008 -release  JAN 07, 2021 20:14:37

*RUN  19        : ERiMA DCC1                MZCER047 ETMZmelk    1
 MODEL          : MZCER047 - Maize
 EXPERIMENT     : ETMZmelk SN MELKSSAL
 DATA PATH      : C:\IRI\Python_Dash\ET_DSS_hist\TEST\
 TREATMENT  1   : ERiMA DCC1                MZCER047
  

!     WATER BALANCE PARAMETERS
!     ========================                 --mm--

!     Soil H20 (start) on Year/day 1999/165    586.18
!     Soil H20 (final) on Year/day 1999/308    487.68
!     Effective Irrigation                       0.00
!     Precipitation                            627.80
!     Water added with new mulch                 0.00
!     Drainage                                 147.52
!     Tiledrain flow                             0.00
!     Runoff                                   100.47
!     Mulch evaporation                          0.00
!     Soil Evaporation                         168.53
!     Transpiration                            309.77
!     Potential ET                             638.23

!     Initial mulch water content                0.00
!     Final mulch water content                  0.00

!     Final Balance                             0.006


*DSSAT Cropping System Model Ver. 4.7.5.008 -release  JAN 07, 2021 20:14:37

*RUN  20        : ERiMA DCC1                MZCER047 ETMZmelk    1
 MODEL          : MZCER047 - Maize
 EXPERIMENT     : ETMZmelk SN MELKSSAL
 DATA PATH      : C:\IRI\Python_Dash\ET_DSS_hist\TEST\
 TREATMENT  1   : ERiMA DCC1                MZCER047
  

!     WATER BALANCE PARAMETERS
!     ========================                 --mm--

!     Soil H20 (start) on Year/day 2000/165    586.18
!     Soil H20 (final) on Year/day 2000/306    492.32
!     Effective Irrigation                       0.00
!     Precipitation                            617.50
!     Water added with new mulch                 0.00
!     Drainage                                 123.80
!     Tiledrain flow                             0.00
!     Runoff                                    76.11
!     Mulch evaporation                          0.00
!     Soil Evaporation                         138.06
!     Transpiration                            373.38
!     Potential ET                             613.85

!     Initial mulch water content                0.00
!     Final mulch water content                  0.00

!     Final Balance                             0.006


*DSSAT Cropping System Model Ver. 4.7.5.008 -release  JAN 07, 2021 20:14:37

*RUN  21        : ERiMA DCC1                MZCER047 ETMZmelk    1
 MODEL          : MZCER047 - Maize
 EXPERIMENT     : ETMZmelk SN MELKSSAL
 DATA PATH      : C:\IRI\Python_Dash\ET_DSS_hist\TEST\
 TREATMENT  1   : ERiMA DCC1                MZCER047
  

!     WATER BALANCE PARAMETERS
!     ========================                 --mm--

!     Soil H20 (start) on Year/day 2001/165    586.18
!     Soil H20 (final) on Year/day 2001/300    491.94
!     Effective Irrigation                       0.00
!     Precipitation                            582.30
!     Water added with new mulch                 0.00
!     Drainage                                 151.58
!     Tiledrain flow                             0.00
!     Runoff                                    74.11
!     Mulch evaporation                          0.00
!     Soil Evaporation                         142.68
!     Transpiration                            308.15
!     Potential ET                             620.66

!     Initial mulch water content                0.00
!     Final mulch water content                  0.00

!     Final Balance                             0.015


*DSSAT Cropping System Model Ver. 4.7.5.008 -release  JAN 07, 2021 20:14:37

*RUN  22        : ERiMA DCC1                MZCER047 ETMZmelk    1
 MODEL          : MZCER047 - Maize
 EXPERIMENT     : ETMZmelk SN MELKSSAL
 DATA PATH      : C:\IRI\Python_Dash\ET_DSS_hist\TEST\
 TREATMENT  1   : ERiMA DCC1                MZCER047
  

!     WATER BALANCE PARAMETERS
!     ========================                 --mm--

!     Soil H20 (start) on Year/day 2002/165    586.18
!     Soil H20 (final) on Year/day 2002/291    488.26
!     Effective Irrigation                       0.00
!     Precipitation                            350.00
!     Water added with new mulch                 0.00
!     Drainage                                  48.71
!     Tiledrain flow                             0.00
!     Runoff                                    34.50
!     Mulch evaporation                          0.00
!     Soil Evaporation                         117.01
!     Transpiration                            247.69
!     Potential ET                             607.65

!     Initial mulch water content                0.00
!     Final mulch water content                  0.00

!     Final Balance                             0.007


*DSSAT Cropping System Model Ver. 4.7.5.008 -release  JAN 07, 2021 20:14:37

*RUN  23        : ERiMA DCC1                MZCER047 ETMZmelk    1
 MODEL          : MZCER047 - Maize
 EXPERIMENT     : ETMZmelk SN MELKSSAL
 DATA PATH      : C:\IRI\Python_Dash\ET_DSS_hist\TEST\
 TREATMENT  1   : ERiMA DCC1                MZCER047
  

!     WATER BALANCE PARAMETERS
!     ========================                 --mm--

!     Soil H20 (start) on Year/day 2003/165    586.18
!     Soil H20 (final) on Year/day 2003/297    496.70
!     Effective Irrigation                       0.00
!     Precipitation                            548.90
!     Water added with new mulch                 0.00
!     Drainage                                 128.41
!     Tiledrain flow                             0.00
!     Runoff                                    42.84
!     Mulch evaporation                          0.00
!     Soil Evaporation                         148.36
!     Transpiration                            318.76
!     Potential ET                             579.52

!     Initial mulch water content                0.00
!     Final mulch water content                  0.00

!     Final Balance                             0.012


*DSSAT Cropping System Model Ver. 4.7.5.008 -release  JAN 07, 2021 20:14:37

*RUN  24        : ERiMA DCC1                MZCER047 ETMZmelk    1
 MODEL          : MZCER047 - Maize
 EXPERIMENT     : ETMZmelk SN MELKSSAL
 DATA PATH      : C:\IRI\Python_Dash\ET_DSS_hist\TEST\
 TREATMENT  1   : ERiMA DCC1                MZCER047
  

!     WATER BALANCE PARAMETERS
!     ========================                 --mm--

!     Soil H20 (start) on Year/day 2004/165    586.18
!     Soil H20 (final) on Year/day 2004/303    493.34
!     Effective Irrigation                       0.00
!     Precipitation                            561.20
!     Water added with new mulch                 0.00
!     Drainage                                 103.55
!     Tiledrain flow                             0.00
!     Runoff                                    84.06
!     Mulch evaporation                          0.00
!     Soil Evaporation                         113.60
!     Transpiration                            352.82
!     Potential ET                             626.04

!     Initial mulch water content                0.00
!     Final mulch water content                  0.00

!     Final Balance                             0.015


*DSSAT Cropping System Model Ver. 4.7.5.008 -release  JAN 07, 2021 20:14:37

*RUN  25        : ERiMA DCC1                MZCER047 ETMZmelk    1
 MODEL          : MZCER047 - Maize
 EXPERIMENT     : ETMZmelk SN MELKSSAL
 DATA PATH      : C:\IRI\Python_Dash\ET_DSS_hist\TEST\
 TREATMENT  1   : ERiMA DCC1                MZCER047
  

!     WATER BALANCE PARAMETERS
!     ========================                 --mm--

!     Soil H20 (start) on Year/day 2005/165    586.18
!     Soil H20 (final) on Year/day 2005/296    490.88
!     Effective Irrigation                       0.00
!     Precipitation                            454.70
!     Water added with new mulch                 0.00
!     Drainage                                  57.12
!     Tiledrain flow                             0.00
!     Runoff                                    46.60
!     Mulch evaporation                          0.00
!     Soil Evaporation                         133.01
!     Transpiration                            313.27
!     Potential ET                             595.14

!     Initial mulch water content                0.00
!     Final mulch water content                  0.00

!     Final Balance                             0.008


*DSSAT Cropping System Model Ver. 4.7.5.008 -release  JAN 07, 2021 20:14:37

*RUN  26        : ERiMA DCC1                MZCER047 ETMZmelk    1
 MODEL          : MZCER047 - Maize
 EXPERIMENT     : ETMZmelk SN MELKSSAL
 DATA PATH      : C:\IRI\Python_Dash\ET_DSS_hist\TEST\
 TREATMENT  1   : ERiMA DCC1                MZCER047
  

!     WATER BALANCE PARAMETERS
!     ========================                 --mm--

!     Soil H20 (start) on Year/day 2006/165    586.18
!     Soil H20 (final) on Year/day 2006/296    492.92
!     Effective Irrigation                       0.00
!     Precipitation                            490.20
!     Water added with new mulch                 0.00
!     Drainage                                  81.51
!     Tiledrain flow                             0.00
!     Runoff                                    44.12
!     Mulch evaporation                          0.00
!     Soil Evaporation                         128.29
!     Transpiration                            329.53
!     Potential ET                             581.49

!     Initial mulch water content                0.00
!     Final mulch water content                  0.00

!     Final Balance                             0.009


*DSSAT Cropping System Model Ver. 4.7.5.008 -release  JAN 07, 2021 20:14:37

*RUN  27        : ERiMA DCC1                MZCER047 ETMZmelk    1
 MODEL          : MZCER047 - Maize
 EXPERIMENT     : ETMZmelk SN MELKSSAL
 DATA PATH      : C:\IRI\Python_Dash\ET_DSS_hist\TEST\
 TREATMENT  1   : ERiMA DCC1                MZCER047
  

!     WATER BALANCE PARAMETERS
!     ========================                 --mm--

!     Soil H20 (start) on Year/day 2007/165    586.18
!     Soil H20 (final) on Year/day 2007/302    492.86
!     Effective Irrigation                       0.00
!     Precipitation                            503.60
!     Water added with new mulch                 0.00
!     Drainage                                 108.93
!     Tiledrain flow                             0.00
!     Runoff                                    20.75
!     Mulch evaporation                          0.00
!     Soil Evaporation                         156.27
!     Transpiration                            310.96
!     Potential ET                             580.67

!     Initial mulch water content                0.00
!     Final mulch water content                  0.00

!     Final Balance                             0.006


*DSSAT Cropping System Model Ver. 4.7.5.008 -release  JAN 07, 2021 20:14:37

*RUN  28        : ERiMA DCC1                MZCER047 ETMZmelk    1
 MODEL          : MZCER047 - Maize
 EXPERIMENT     : ETMZmelk SN MELKSSAL
 DATA PATH      : C:\IRI\Python_Dash\ET_DSS_hist\TEST\
 TREATMENT  1   : ERiMA DCC1                MZCER047
  

!     WATER BALANCE PARAMETERS
!     ========================                 --mm--

!     Soil H20 (start) on Year/day 2008/165    586.18
!     Soil H20 (final) on Year/day 2008/299    493.55
!     Effective Irrigation                       0.00
!     Precipitation                            606.50
!     Water added with new mulch                 0.00
!     Drainage                                 137.32
!     Tiledrain flow                             0.00
!     Runoff                                    65.25
!     Mulch evaporation                          0.00
!     Soil Evaporation                         129.58
!     Transpiration                            366.96
!     Potential ET                             636.50

!     Initial mulch water content                0.00
!     Final mulch water content                  0.00

!     Final Balance                             0.015


*DSSAT Cropping System Model Ver. 4.7.5.008 -release  JAN 07, 2021 20:14:37

*RUN  29        : ERiMA DCC1                MZCER047 ETMZmelk    1
 MODEL          : MZCER047 - Maize
 EXPERIMENT     : ETMZmelk SN MELKSSAL
 DATA PATH      : C:\IRI\Python_Dash\ET_DSS_hist\TEST\
 TREATMENT  1   : ERiMA DCC1                MZCER047
  

!     WATER BALANCE PARAMETERS
!     ========================                 --mm--

!     Soil H20 (start) on Year/day 2009/165    586.18
!     Soil H20 (final) on Year/day 2009/296    501.27
!     Effective Irrigation                       0.00
!     Precipitation                            505.30
!     Water added with new mulch                 0.00
!     Drainage                                  42.45
!     Tiledrain flow                             0.00
!     Runoff                                    52.69
!     Mulch evaporation                          0.00
!     Soil Evaporation                         148.45
!     Transpiration                            346.61
!     Potential ET                             606.57

!     Initial mulch water content                0.00
!     Final mulch water content                  0.00

!     Final Balance                             0.008


*DSSAT Cropping System Model Ver. 4.7.5.008 -release  JAN 07, 2021 20:14:37

*RUN  30        : ERiMA DCC1                MZCER047 ETMZmelk    1
 MODEL          : MZCER047 - Maize
 EXPERIMENT     : ETMZmelk SN MELKSSAL
 DATA PATH      : C:\IRI\Python_Dash\ET_DSS_hist\TEST\
 TREATMENT  1   : ERiMA DCC1                MZCER047
  

!     WATER BALANCE PARAMETERS
!     ========================                 --mm--

!     Soil H20 (start) on Year/day 2010/165    586.18
!     Soil H20 (final) on Year/day 2010/285    505.39
!     Effective Irrigation                       0.00
!     Precipitation                            525.20
!     Water added with new mulch                 0.00
!     Drainage                                  76.84
!     Tiledrain flow                             0.00
!     Runoff                                    44.75
!     Mulch evaporation                          0.00
!     Soil Evaporation                         113.46
!     Transpiration                            370.93
!     Potential ET                             569.40

!     Initial mulch water content                0.00
!     Final mulch water content                  0.00

!     Final Balance                             0.012


*DSSAT Cropping System Model Ver. 4.7.5.008 -release  JAN 07, 2021 20:14:37

*RUN  31        : ERiMA DCC1                MZCER047 ETMZmelk    1
 MODEL          : MZCER047 - Maize
 EXPERIMENT     : ETMZmelk SN MELKSSAL
 DATA PATH      : C:\IRI\Python_Dash\ET_DSS_hist\TEST\
 TREATMENT  1   : ERiMA DCC1                MZCER047
  

!     WATER BALANCE PARAMETERS
!     ========================                 --mm--

!     Soil H20 (start) on Year/day 2011/165    586.18
!     Soil H20 (final) on Year/day 2011/319    493.39
!     Effective Irrigation                       0.00
!     Precipitation                            537.70
!     Water added with new mulch                 0.00
!     Drainage                                 131.45
!     Tiledrain flow                             0.00
!     Runoff                                    34.96
!     Mulch evaporation                          0.00
!     Soil Evaporation                         164.22
!     Transpiration                            299.84
!     Potential ET                             703.61

!     Initial mulch water content                0.00
!     Final mulch water content                  0.00

!     Final Balance                             0.017


*DSSAT Cropping System Model Ver. 4.7.5.008 -release  JAN 07, 2021 20:14:37

*RUN  32        : ERiMA DCC1                MZCER047 ETMZmelk    1
 MODEL          : MZCER047 - Maize
 EXPERIMENT     : ETMZmelk SN MELKSSAL
 DATA PATH      : C:\IRI\Python_Dash\ET_DSS_hist\TEST\
 TREATMENT  1   : ERiMA DCC1                MZCER047
  

!     WATER BALANCE PARAMETERS
!     ========================                 --mm--

!     Soil H20 (start) on Year/day 2012/165    586.18
!     Soil H20 (final) on Year/day 2012/312    494.48
!     Effective Irrigation                       0.00
!     Precipitation                            547.00
!     Water added with new mulch                 0.00
!     Drainage                                 129.98
!     Tiledrain flow                             0.00
!     Runoff                                    32.49
!     Mulch evaporation                          0.00
!     Soil Evaporation                         159.34
!     Transpiration                            316.88
!     Potential ET                             669.86

!     Initial mulch water content                0.00
!     Final mulch water content                  0.00

!     Final Balance                             0.016


*DSSAT Cropping System Model Ver. 4.7.5.008 -release  JAN 07, 2021 20:14:37

*RUN  33        : ERiMA DCC1                MZCER047 ETMZmelk    1
 MODEL          : MZCER047 - Maize
 EXPERIMENT     : ETMZmelk SN MELKSSAL
 DATA PATH      : C:\IRI\Python_Dash\ET_DSS_hist\TEST\
 TREATMENT  1   : ERiMA DCC1                MZCER047
  

!     WATER BALANCE PARAMETERS
!     ========================                 --mm--

!     Soil H20 (start) on Year/day 2013/165    586.18
!     Soil H20 (final) on Year/day 2013/305    491.61
!     Effective Irrigation                       0.00
!     Precipitation                            543.70
!     Water added with new mulch                 0.00
!     Drainage                                  89.66
!     Tiledrain flow                             0.00
!     Runoff                                    38.58
!     Mulch evaporation                          0.00
!     Soil Evaporation                         190.96
!     Transpiration                            319.05
!     Potential ET                             627.93

!     Initial mulch water content                0.00
!     Final mulch water content                  0.00

!     Final Balance                             0.012


*DSSAT Cropping System Model Ver. 4.7.5.008 -release  JAN 07, 2021 20:14:37

*RUN  34        : ERiMA DCC1                MZCER047 ETMZmelk    1
 MODEL          : MZCER047 - Maize
 EXPERIMENT     : ETMZmelk SN MELKSSAL
 DATA PATH      : C:\IRI\Python_Dash\ET_DSS_hist\TEST\
 TREATMENT  1   : ERiMA DCC1                MZCER047
  

!     WATER BALANCE PARAMETERS
!     ========================                 --mm--

!     Soil H20 (start) on Year/day 2014/165    586.18
!     Soil H20 (final) on Year/day 2014/317    490.05
!     Effective Irrigation                       0.00
!     Precipitation                            389.60
!     Water added with new mulch                 0.00
!     Drainage                                   4.74
!     Tiledrain flow                             0.00
!     Runoff                                    33.29
!     Mulch evaporation                          0.00
!     Soil Evaporation                          94.11
!     Transpiration                            353.57
!     Potential ET                             687.39

!     Initial mulch water content                0.00
!     Final mulch water content                  0.00

!     Final Balance                             0.013


*DSSAT Cropping System Model Ver. 4.7.5.008 -release  JAN 07, 2021 20:14:52

*RUN  35        : ERiMA DCC1                MZCER047 ETMZawas    1
 MODEL          : MZCER047 - Maize
 EXPERIMENT     : ETMZawas SN MELKSSAL
 DATA PATH      : C:\IRI\Python_Dash\ET_DSS_hist\TEST\
 TREATMENT  1   : ERiMA DCC1                MZCER047
  

!     WATER BALANCE PARAMETERS
!     ========================                 --mm--

!     Soil H20 (start) on Year/day 1981/165    586.18
!     Soil H20 (final) on Year/day 1981/316    487.52
!     Effective Irrigation                       0.00
!     Precipitation                            500.90
!     Water added with new mulch                 0.00
!     Drainage                                  51.95
!     Tiledrain flow                             0.00
!     Runoff                                    25.53
!     Mulch evaporation                          0.00
!     Soil Evaporation                         154.91
!     Transpiration                            367.17
!     Potential ET                             680.03

!     Initial mulch water content                0.00
!     Final mulch water content                  0.00

!     Final Balance                             0.007


*DSSAT Cropping System Model Ver. 4.7.5.008 -release  JAN 07, 2021 20:14:52

*RUN  36        : ERiMA DCC1                MZCER047 ETMZawas    1
 MODEL          : MZCER047 - Maize
 EXPERIMENT     : ETMZawas SN MELKSSAL
 DATA PATH      : C:\IRI\Python_Dash\ET_DSS_hist\TEST\
 TREATMENT  1   : ERiMA DCC1                MZCER047
  

!     WATER BALANCE PARAMETERS
!     ========================                 --mm--

!     Soil H20 (start) on Year/day 1982/165    586.18
!     Soil H20 (final) on Year/day 1982/317    498.57
!     Effective Irrigation                       0.00
!     Precipitation                            567.50
!     Water added with new mulch                 0.00
!     Drainage                                  20.12
!     Tiledrain flow                             0.00
!     Runoff                                    37.92
!     Mulch evaporation                          0.00
!     Soil Evaporation                         170.63
!     Transpiration                            426.45
!     Potential ET                             700.70

!     Initial mulch water content                0.00
!     Final mulch water content                  0.00

!     Final Balance                             0.003


*DSSAT Cropping System Model Ver. 4.7.5.008 -release  JAN 07, 2021 20:14:52

*RUN  37        : ERiMA DCC1                MZCER047 ETMZawas    1
 MODEL          : MZCER047 - Maize
 EXPERIMENT     : ETMZawas SN MELKSSAL
 DATA PATH      : C:\IRI\Python_Dash\ET_DSS_hist\TEST\
 TREATMENT  1   : ERiMA DCC1                MZCER047
  

!     WATER BALANCE PARAMETERS
!     ========================                 --mm--

!     Soil H20 (start) on Year/day 1983/165    586.18
!     Soil H20 (final) on Year/day 1983/316    504.79
!     Effective Irrigation                       0.00
!     Precipitation                            510.40
!     Water added with new mulch                 0.00
!     Drainage                                   0.00
!     Tiledrain flow                             0.00
!     Runoff                                    30.20
!     Mulch evaporation                          0.00
!     Soil Evaporation                         150.86
!     Transpiration                            410.72
!     Potential ET                             642.20

!     Initial mulch water content                0.00
!     Final mulch water content                  0.00

!     Final Balance                             0.016


*DSSAT Cropping System Model Ver. 4.7.5.008 -release  JAN 07, 2021 20:14:52

*RUN  38        : ERiMA DCC1                MZCER047 ETMZawas    1
 MODEL          : MZCER047 - Maize
 EXPERIMENT     : ETMZawas SN MELKSSAL
 DATA PATH      : C:\IRI\Python_Dash\ET_DSS_hist\TEST\
 TREATMENT  1   : ERiMA DCC1                MZCER047
  

!     WATER BALANCE PARAMETERS
!     ========================                 --mm--

!     Soil H20 (start) on Year/day 1984/165    586.18
!     Soil H20 (final) on Year/day 1984/300    512.54
!     Effective Irrigation                       0.00
!     Precipitation                            414.10
!     Water added with new mulch                 0.00
!     Drainage                                   0.00
!     Tiledrain flow                             0.00
!     Runoff                                    20.56
!     Mulch evaporation                          0.00
!     Soil Evaporation                         154.90
!     Transpiration                            312.27
!     Potential ET                             618.11

!     Initial mulch water content                0.00
!     Final mulch water content                  0.00

!     Final Balance                             0.002


*DSSAT Cropping System Model Ver. 4.7.5.008 -release  JAN 07, 2021 20:14:52

*RUN  39        : ERiMA DCC1                MZCER047 ETMZawas    1
 MODEL          : MZCER047 - Maize
 EXPERIMENT     : ETMZawas SN MELKSSAL
 DATA PATH      : C:\IRI\Python_Dash\ET_DSS_hist\TEST\
 TREATMENT  1   : ERiMA DCC1                MZCER047
  

!     WATER BALANCE PARAMETERS
!     ========================                 --mm--

!     Soil H20 (start) on Year/day 1985/165    586.18
!     Soil H20 (final) on Year/day 1985/310    488.49
!     Effective Irrigation                       0.00
!     Precipitation                            384.00
!     Water added with new mulch                 0.00
!     Drainage                                  33.33
!     Tiledrain flow                             0.00
!     Runoff                                     7.33
!     Mulch evaporation                          0.00
!     Soil Evaporation                         160.29
!     Transpiration                            280.72
!     Potential ET                             631.28

!     Initial mulch water content                0.00
!     Final mulch water content                  0.00

!     Final Balance                             0.010


*DSSAT Cropping System Model Ver. 4.7.5.008 -release  JAN 07, 2021 20:14:52

*RUN  40        : ERiMA DCC1                MZCER047 ETMZawas    1
 MODEL          : MZCER047 - Maize
 EXPERIMENT     : ETMZawas SN MELKSSAL
 DATA PATH      : C:\IRI\Python_Dash\ET_DSS_hist\TEST\
 TREATMENT  1   : ERiMA DCC1                MZCER047
  

!     WATER BALANCE PARAMETERS
!     ========================                 --mm--

!     Soil H20 (start) on Year/day 1986/165    586.18
!     Soil H20 (final) on Year/day 1986/313    489.26
!     Effective Irrigation                       0.00
!     Precipitation                            440.10
!     Water added with new mulch                 0.00
!     Drainage                                  16.40
!     Tiledrain flow                             0.00
!     Runoff                                    48.32
!     Mulch evaporation                          0.00
!     Soil Evaporation                         147.91
!     Transpiration                            324.38
!     Potential ET                             642.45

!     Initial mulch water content                0.00
!     Final mulch water content                  0.00

!     Final Balance                             0.005


*DSSAT Cropping System Model Ver. 4.7.5.008 -release  JAN 07, 2021 20:14:52

*RUN  41        : ERiMA DCC1                MZCER047 ETMZawas    1
 MODEL          : MZCER047 - Maize
 EXPERIMENT     : ETMZawas SN MELKSSAL
 DATA PATH      : C:\IRI\Python_Dash\ET_DSS_hist\TEST\
 TREATMENT  1   : ERiMA DCC1                MZCER047
  

!     WATER BALANCE PARAMETERS
!     ========================                 --mm--

!     Soil H20 (start) on Year/day 1987/165    586.18
!     Soil H20 (final) on Year/day 1987/314    475.06
!     Effective Irrigation                       0.00
!     Precipitation                            417.00
!     Water added with new mulch                 0.00
!     Drainage                                   0.00
!     Tiledrain flow                             0.00
!     Runoff                                    15.70
!     Mulch evaporation                          0.00
!     Soil Evaporation                         141.22
!     Transpiration                            371.20
!     Potential ET                             689.33

!     Initial mulch water content                0.00
!     Final mulch water content                  0.00

!     Final Balance                             0.008


*DSSAT Cropping System Model Ver. 4.7.5.008 -release  JAN 07, 2021 20:14:52

*RUN  42        : ERiMA DCC1                MZCER047 ETMZawas    1
 MODEL          : MZCER047 - Maize
 EXPERIMENT     : ETMZawas SN MELKSSAL
 DATA PATH      : C:\IRI\Python_Dash\ET_DSS_hist\TEST\
 TREATMENT  1   : ERiMA DCC1                MZCER047
  

!     WATER BALANCE PARAMETERS
!     ========================                 --mm--

!     Soil H20 (start) on Year/day 1988/165    586.18
!     Soil H20 (final) on Year/day 1988/320    496.98
!     Effective Irrigation                       0.00
!     Precipitation                            568.90
!     Water added with new mulch                 0.00
!     Drainage                                  68.14
!     Tiledrain flow                             0.00
!     Runoff                                    32.71
!     Mulch evaporation                          0.00
!     Soil Evaporation                         148.91
!     Transpiration                            408.32
!     Potential ET                             644.87

!     Initial mulch water content                0.00
!     Final mulch water content                  0.00

!     Final Balance                             0.012


*DSSAT Cropping System Model Ver. 4.7.5.008 -release  JAN 07, 2021 20:14:52

*RUN  43        : ERiMA DCC1                MZCER047 ETMZawas    1
 MODEL          : MZCER047 - Maize
 EXPERIMENT     : ETMZawas SN MELKSSAL
 DATA PATH      : C:\IRI\Python_Dash\ET_DSS_hist\TEST\
 TREATMENT  1   : ERiMA DCC1                MZCER047
  

!     WATER BALANCE PARAMETERS
!     ========================                 --mm--

!     Soil H20 (start) on Year/day 1989/165    586.18
!     Soil H20 (final) on Year/day 1989/319    491.51
!     Effective Irrigation                       0.00
!     Precipitation                            532.50
!     Water added with new mulch                 0.00
!     Drainage                                  43.35
!     Tiledrain flow                             0.00
!     Runoff                                    47.38
!     Mulch evaporation                          0.00
!     Soil Evaporation                         169.70
!     Transpiration                            366.72
!     Potential ET                             683.79

!     Initial mulch water content                0.00
!     Final mulch water content                  0.00

!     Final Balance                             0.009


*DSSAT Cropping System Model Ver. 4.7.5.008 -release  JAN 07, 2021 20:14:52

*RUN  44        : ERiMA DCC1                MZCER047 ETMZawas    1
 MODEL          : MZCER047 - Maize
 EXPERIMENT     : ETMZawas SN MELKSSAL
 DATA PATH      : C:\IRI\Python_Dash\ET_DSS_hist\TEST\
 TREATMENT  1   : ERiMA DCC1                MZCER047
  

!     WATER BALANCE PARAMETERS
!     ========================                 --mm--

!     Soil H20 (start) on Year/day 1990/165    586.18
!     Soil H20 (final) on Year/day 1990/305    482.15
!     Effective Irrigation                       0.00
!     Precipitation                            380.00
!     Water added with new mulch                 0.00
!     Drainage                                   2.22
!     Tiledrain flow                             0.00
!     Runoff                                    12.06
!     Mulch evaporation                          0.00
!     Soil Evaporation                         146.02
!     Transpiration                            323.71
!     Potential ET                             628.31

!     Initial mulch water content                0.00
!     Final mulch water content                  0.00

!     Final Balance                             0.013


*DSSAT Cropping System Model Ver. 4.7.5.008 -release  JAN 07, 2021 20:14:52

*RUN  45        : ERiMA DCC1                MZCER047 ETMZawas    1
 MODEL          : MZCER047 - Maize
 EXPERIMENT     : ETMZawas SN MELKSSAL
 DATA PATH      : C:\IRI\Python_Dash\ET_DSS_hist\TEST\
 TREATMENT  1   : ERiMA DCC1                MZCER047
  

!     WATER BALANCE PARAMETERS
!     ========================                 --mm--

!     Soil H20 (start) on Year/day 1991/165    586.18
!     Soil H20 (final) on Year/day 1991/312    485.72
!     Effective Irrigation                       0.00
!     Precipitation                            432.20
!     Water added with new mulch                 0.00
!     Drainage                                  18.30
!     Tiledrain flow                             0.00
!     Runoff                                    19.63
!     Mulch evaporation                          0.00
!     Soil Evaporation                         145.44
!     Transpiration                            349.28
!     Potential ET                             682.37

!     Initial mulch water content                0.00
!     Final mulch water content                  0.00

!     Final Balance                             0.010


*DSSAT Cropping System Model Ver. 4.7.5.008 -release  JAN 07, 2021 20:14:52

*RUN  46        : ERiMA DCC1                MZCER047 ETMZawas    1
 MODEL          : MZCER047 - Maize
 EXPERIMENT     : ETMZawas SN MELKSSAL
 DATA PATH      : C:\IRI\Python_Dash\ET_DSS_hist\TEST\
 TREATMENT  1   : ERiMA DCC1                MZCER047
  

!     WATER BALANCE PARAMETERS
!     ========================                 --mm--

!     Soil H20 (start) on Year/day 1992/165    586.18
!     Soil H20 (final) on Year/day 1992/316    525.25
!     Effective Irrigation                       0.00
!     Precipitation                            617.90
!     Water added with new mulch                 0.00
!     Drainage                                  72.89
!     Tiledrain flow                             0.00
!     Runoff                                    36.41
!     Mulch evaporation                          0.00
!     Soil Evaporation                         152.96
!     Transpiration                            416.56
!     Potential ET                             655.13

!     Initial mulch water content                0.00
!     Final mulch water content                  0.00

!     Final Balance                             0.009


*DSSAT Cropping System Model Ver. 4.7.5.008 -release  JAN 07, 2021 20:14:52

*RUN  47        : ERiMA DCC1                MZCER047 ETMZawas    1
 MODEL          : MZCER047 - Maize
 EXPERIMENT     : ETMZawas SN MELKSSAL
 DATA PATH      : C:\IRI\Python_Dash\ET_DSS_hist\TEST\
 TREATMENT  1   : ERiMA DCC1                MZCER047
  

!     WATER BALANCE PARAMETERS
!     ========================                 --mm--

!     Soil H20 (start) on Year/day 1993/165    586.18
!     Soil H20 (final) on Year/day 1993/319    498.99
!     Effective Irrigation                       0.00
!     Precipitation                            534.00
!     Water added with new mulch                 0.00
!     Drainage                                   8.16
!     Tiledrain flow                             0.00
!     Runoff                                    33.37
!     Mulch evaporation                          0.00
!     Soil Evaporation                         125.24
!     Transpiration                            454.41
!     Potential ET                             691.56

!     Initial mulch water content                0.00
!     Final mulch water content                  0.00

!     Final Balance                             0.012


*DSSAT Cropping System Model Ver. 4.7.5.008 -release  JAN 07, 2021 20:14:52

*RUN  48        : ERiMA DCC1                MZCER047 ETMZawas    1
 MODEL          : MZCER047 - Maize
 EXPERIMENT     : ETMZawas SN MELKSSAL
 DATA PATH      : C:\IRI\Python_Dash\ET_DSS_hist\TEST\
 TREATMENT  1   : ERiMA DCC1                MZCER047
  

!     WATER BALANCE PARAMETERS
!     ========================                 --mm--

!     Soil H20 (start) on Year/day 1994/165    586.18
!     Soil H20 (final) on Year/day 1994/314    500.61
!     Effective Irrigation                       0.00
!     Precipitation                            525.80
!     Water added with new mulch                 0.00
!     Drainage                                  81.19
!     Tiledrain flow                             0.00
!     Runoff                                    38.61
!     Mulch evaporation                          0.00
!     Soil Evaporation                         165.47
!     Transpiration                            326.10
!     Potential ET                             676.43

!     Initial mulch water content                0.00
!     Final mulch water content                  0.00

!     Final Balance                             0.004


*DSSAT Cropping System Model Ver. 4.7.5.008 -release  JAN 07, 2021 20:14:52

*RUN  49        : ERiMA DCC1                MZCER047 ETMZawas    1
 MODEL          : MZCER047 - Maize
 EXPERIMENT     : ETMZawas SN MELKSSAL
 DATA PATH      : C:\IRI\Python_Dash\ET_DSS_hist\TEST\
 TREATMENT  1   : ERiMA DCC1                MZCER047
  

!     WATER BALANCE PARAMETERS
!     ========================                 --mm--

!     Soil H20 (start) on Year/day 1995/165    586.18
!     Soil H20 (final) on Year/day 1995/306    496.17
!     Effective Irrigation                       0.00
!     Precipitation                            485.50
!     Water added with new mulch                 0.00
!     Drainage                                  43.67
!     Tiledrain flow                             0.00
!     Runoff                                    46.19
!     Mulch evaporation                          0.00
!     Soil Evaporation                         162.75
!     Transpiration                            322.90
!     Potential ET                             612.16

!     Initial mulch water content                0.00
!     Final mulch water content                  0.00

!     Final Balance                             0.008


*DSSAT Cropping System Model Ver. 4.7.5.008 -release  JAN 07, 2021 20:14:52

*RUN  50        : ERiMA DCC1                MZCER047 ETMZawas    1
 MODEL          : MZCER047 - Maize
 EXPERIMENT     : ETMZawas SN MELKSSAL
 DATA PATH      : C:\IRI\Python_Dash\ET_DSS_hist\TEST\
 TREATMENT  1   : ERiMA DCC1                MZCER047
  

!     WATER BALANCE PARAMETERS
!     ========================                 --mm--

!     Soil H20 (start) on Year/day 1996/165    586.18
!     Soil H20 (final) on Year/day 1996/314    488.74
!     Effective Irrigation                       0.00
!     Precipitation                            547.50
!     Water added with new mulch                 0.00
!     Drainage                                  79.02
!     Tiledrain flow                             0.00
!     Runoff                                    48.31
!     Mulch evaporation                          0.00
!     Soil Evaporation                         127.41
!     Transpiration                            390.19
!     Potential ET                             642.25

!     Initial mulch water content                0.00
!     Final mulch water content                  0.00

!     Final Balance                             0.014


*DSSAT Cropping System Model Ver. 4.7.5.008 -release  JAN 07, 2021 20:14:52

*RUN  51        : ERiMA DCC1                MZCER047 ETMZawas    1
 MODEL          : MZCER047 - Maize
 EXPERIMENT     : ETMZawas SN MELKSSAL
 DATA PATH      : C:\IRI\Python_Dash\ET_DSS_hist\TEST\
 TREATMENT  1   : ERiMA DCC1                MZCER047
  

!     WATER BALANCE PARAMETERS
!     ========================                 --mm--

!     Soil H20 (start) on Year/day 1997/165    586.18
!     Soil H20 (final) on Year/day 1997/307    580.38
!     Effective Irrigation                       0.00
!     Precipitation                            636.90
!     Water added with new mulch                 0.00
!     Drainage                                  16.53
!     Tiledrain flow                             0.00
!     Runoff                                    33.98
!     Mulch evaporation                          0.00
!     Soil Evaporation                         173.75
!     Transpiration                            418.43
!     Potential ET                             637.01

!     Initial mulch water content                0.00
!     Final mulch water content                  0.00

!     Final Balance                             0.007


*DSSAT Cropping System Model Ver. 4.7.5.008 -release  JAN 07, 2021 20:14:52

*RUN  52        : ERiMA DCC1                MZCER047 ETMZawas    1
 MODEL          : MZCER047 - Maize
 EXPERIMENT     : ETMZawas SN MELKSSAL
 DATA PATH      : C:\IRI\Python_Dash\ET_DSS_hist\TEST\
 TREATMENT  1   : ERiMA DCC1                MZCER047
  

!     WATER BALANCE PARAMETERS
!     ========================                 --mm--

!     Soil H20 (start) on Year/day 1998/165    586.18
!     Soil H20 (final) on Year/day 1998/311    505.53
!     Effective Irrigation                       0.00
!     Precipitation                            614.60
!     Water added with new mulch                 0.00
!     Drainage                                 136.84
!     Tiledrain flow                             0.00
!     Runoff                                    52.11
!     Mulch evaporation                          0.00
!     Soil Evaporation                         135.88
!     Transpiration                            370.41
!     Potential ET                             584.56

!     Initial mulch water content                0.00
!     Final mulch water content                  0.00

!     Final Balance                             0.008


*DSSAT Cropping System Model Ver. 4.7.5.008 -release  JAN 07, 2021 20:14:52

*RUN  53        : ERiMA DCC1                MZCER047 ETMZawas    1
 MODEL          : MZCER047 - Maize
 EXPERIMENT     : ETMZawas SN MELKSSAL
 DATA PATH      : C:\IRI\Python_Dash\ET_DSS_hist\TEST\
 TREATMENT  1   : ERiMA DCC1                MZCER047
  

!     WATER BALANCE PARAMETERS
!     ========================                 --mm--

!     Soil H20 (start) on Year/day 1999/165    586.18
!     Soil H20 (final) on Year/day 1999/314    488.78
!     Effective Irrigation                       0.00
!     Precipitation                            552.70
!     Water added with new mulch                 0.00
!     Drainage                                  52.69
!     Tiledrain flow                             0.00
!     Runoff                                    54.60
!     Mulch evaporation                          0.00
!     Soil Evaporation                         160.08
!     Transpiration                            382.73
!     Potential ET                             624.27

!     Initial mulch water content                0.00
!     Final mulch water content                  0.00

!     Final Balance                             0.009


*DSSAT Cropping System Model Ver. 4.7.5.008 -release  JAN 07, 2021 20:14:52

*RUN  54        : ERiMA DCC1                MZCER047 ETMZawas    1
 MODEL          : MZCER047 - Maize
 EXPERIMENT     : ETMZawas SN MELKSSAL
 DATA PATH      : C:\IRI\Python_Dash\ET_DSS_hist\TEST\
 TREATMENT  1   : ERiMA DCC1                MZCER047
  

!     WATER BALANCE PARAMETERS
!     ========================                 --mm--

!     Soil H20 (start) on Year/day 2000/165    586.18
!     Soil H20 (final) on Year/day 2000/315    524.16
!     Effective Irrigation                       0.00
!     Precipitation                            537.90
!     Water added with new mulch                 0.00
!     Drainage                                  31.68
!     Tiledrain flow                             0.00
!     Runoff                                    31.64
!     Mulch evaporation                          0.00
!     Soil Evaporation                         140.83
!     Transpiration                            395.76
!     Potential ET                             610.29

!     Initial mulch water content                0.00
!     Final mulch water content                  0.00

!     Final Balance                             0.009


*DSSAT Cropping System Model Ver. 4.7.5.008 -release  JAN 07, 2021 20:14:52

*RUN  55        : ERiMA DCC1                MZCER047 ETMZawas    1
 MODEL          : MZCER047 - Maize
 EXPERIMENT     : ETMZawas SN MELKSSAL
 DATA PATH      : C:\IRI\Python_Dash\ET_DSS_hist\TEST\
 TREATMENT  1   : ERiMA DCC1                MZCER047
  

!     WATER BALANCE PARAMETERS
!     ========================                 --mm--

!     Soil H20 (start) on Year/day 2001/165    586.18
!     Soil H20 (final) on Year/day 2001/306    493.94
!     Effective Irrigation                       0.00
!     Precipitation                            534.10
!     Water added with new mulch                 0.00
!     Drainage                                  34.44
!     Tiledrain flow                             0.00
!     Runoff                                    30.81
!     Mulch evaporation                          0.00
!     Soil Evaporation                         172.95
!     Transpiration                            388.13
!     Potential ET                             602.64

!     Initial mulch water content                0.00
!     Final mulch water content                  0.00

!     Final Balance                             0.008


*DSSAT Cropping System Model Ver. 4.7.5.008 -release  JAN 07, 2021 20:14:52

*RUN  56        : ERiMA DCC1                MZCER047 ETMZawas    1
 MODEL          : MZCER047 - Maize
 EXPERIMENT     : ETMZawas SN MELKSSAL
 DATA PATH      : C:\IRI\Python_Dash\ET_DSS_hist\TEST\
 TREATMENT  1   : ERiMA DCC1                MZCER047
  

!     WATER BALANCE PARAMETERS
!     ========================                 --mm--

!     Soil H20 (start) on Year/day 2002/165    586.18
!     Soil H20 (final) on Year/day 2002/304    491.92
!     Effective Irrigation                       0.00
!     Precipitation                            372.80
!     Water added with new mulch                 0.00
!     Drainage                                   0.00
!     Tiledrain flow                             0.00
!     Runoff                                    23.62
!     Mulch evaporation                          0.00
!     Soil Evaporation                         121.50
!     Transpiration                            321.93
!     Potential ET                             619.01

!     Initial mulch water content                0.00
!     Final mulch water content                  0.00

!     Final Balance                             0.008


*DSSAT Cropping System Model Ver. 4.7.5.008 -release  JAN 07, 2021 20:14:52

*RUN  57        : ERiMA DCC1                MZCER047 ETMZawas    1
 MODEL          : MZCER047 - Maize
 EXPERIMENT     : ETMZawas SN MELKSSAL
 DATA PATH      : C:\IRI\Python_Dash\ET_DSS_hist\TEST\
 TREATMENT  1   : ERiMA DCC1                MZCER047
  

!     WATER BALANCE PARAMETERS
!     ========================                 --mm--

!     Soil H20 (start) on Year/day 2003/165    586.18
!     Soil H20 (final) on Year/day 2003/306    493.40
!     Effective Irrigation                       0.00
!     Precipitation                            513.60
!     Water added with new mulch                 0.00
!     Drainage                                  58.93
!     Tiledrain flow                             0.00
!     Runoff                                    29.81
!     Mulch evaporation                          0.00
!     Soil Evaporation                         162.98
!     Transpiration                            354.66
!     Potential ET                             595.96

!     Initial mulch water content                0.00
!     Final mulch water content                  0.00

!     Final Balance                             0.008


*DSSAT Cropping System Model Ver. 4.7.5.008 -release  JAN 07, 2021 20:14:52

*RUN  58        : ERiMA DCC1                MZCER047 ETMZawas    1
 MODEL          : MZCER047 - Maize
 EXPERIMENT     : ETMZawas SN MELKSSAL
 DATA PATH      : C:\IRI\Python_Dash\ET_DSS_hist\TEST\
 TREATMENT  1   : ERiMA DCC1                MZCER047
  

!     WATER BALANCE PARAMETERS
!     ========================                 --mm--

!     Soil H20 (start) on Year/day 2004/165    586.18
!     Soil H20 (final) on Year/day 2004/308    492.50
!     Effective Irrigation                       0.00
!     Precipitation                            485.00
!     Water added with new mulch                 0.00
!     Drainage                                  32.35
!     Tiledrain flow                             0.00
!     Runoff                                    18.55
!     Mulch evaporation                          0.00
!     Soil Evaporation                         134.62
!     Transpiration                            393.15
!     Potential ET                             622.59

!     Initial mulch water content                0.00
!     Final mulch water content                  0.00

!     Final Balance                             0.011


*DSSAT Cropping System Model Ver. 4.7.5.008 -release  JAN 07, 2021 20:14:52

*RUN  59        : ERiMA DCC1                MZCER047 ETMZawas    1
 MODEL          : MZCER047 - Maize
 EXPERIMENT     : ETMZawas SN MELKSSAL
 DATA PATH      : C:\IRI\Python_Dash\ET_DSS_hist\TEST\
 TREATMENT  1   : ERiMA DCC1                MZCER047
  

!     WATER BALANCE PARAMETERS
!     ========================                 --mm--

!     Soil H20 (start) on Year/day 2005/165    586.18
!     Soil H20 (final) on Year/day 2005/304    512.00
!     Effective Irrigation                       0.00
!     Precipitation                            439.10
!     Water added with new mulch                 0.00
!     Drainage                                  18.60
!     Tiledrain flow                             0.00
!     Runoff                                    16.24
!     Mulch evaporation                          0.00
!     Soil Evaporation                         134.50
!     Transpiration                            343.93
!     Potential ET                             587.88

!     Initial mulch water content                0.00
!     Final mulch water content                  0.00

!     Final Balance                             0.007


*DSSAT Cropping System Model Ver. 4.7.5.008 -release  JAN 07, 2021 20:14:52

*RUN  60        : ERiMA DCC1                MZCER047 ETMZawas    1
 MODEL          : MZCER047 - Maize
 EXPERIMENT     : ETMZawas SN MELKSSAL
 DATA PATH      : C:\IRI\Python_Dash\ET_DSS_hist\TEST\
 TREATMENT  1   : ERiMA DCC1                MZCER047
  

!     WATER BALANCE PARAMETERS
!     ========================                 --mm--

!     Soil H20 (start) on Year/day 2006/165    586.18
!     Soil H20 (final) on Year/day 2006/304    523.49
!     Effective Irrigation                       0.00
!     Precipitation                            531.00
!     Water added with new mulch                 0.00
!     Drainage                                  21.90
!     Tiledrain flow                             0.00
!     Runoff                                    31.07
!     Mulch evaporation                          0.00
!     Soil Evaporation                         174.11
!     Transpiration                            366.59
!     Potential ET                             578.92

!     Initial mulch water content                0.00
!     Final mulch water content                  0.00

!     Final Balance                             0.008


*DSSAT Cropping System Model Ver. 4.7.5.008 -release  JAN 07, 2021 20:14:52

*RUN  61        : ERiMA DCC1                MZCER047 ETMZawas    1
 MODEL          : MZCER047 - Maize
 EXPERIMENT     : ETMZawas SN MELKSSAL
 DATA PATH      : C:\IRI\Python_Dash\ET_DSS_hist\TEST\
 TREATMENT  1   : ERiMA DCC1                MZCER047
  

!     WATER BALANCE PARAMETERS
!     ========================                 --mm--

!     Soil H20 (start) on Year/day 2007/165    586.18
!     Soil H20 (final) on Year/day 2007/313    496.68
!     Effective Irrigation                       0.00
!     Precipitation                            492.50
!     Water added with new mulch                 0.00
!     Drainage                                  70.86
!     Tiledrain flow                             0.00
!     Runoff                                    18.07
!     Mulch evaporation                          0.00
!     Soil Evaporation                         129.30
!     Transpiration                            363.75
!     Potential ET                             607.33

!     Initial mulch water content                0.00
!     Final mulch water content                  0.00

!     Final Balance                             0.019


*DSSAT Cropping System Model Ver. 4.7.5.008 -release  JAN 07, 2021 20:14:52

*RUN  62        : ERiMA DCC1                MZCER047 ETMZawas    1
 MODEL          : MZCER047 - Maize
 EXPERIMENT     : ETMZawas SN MELKSSAL
 DATA PATH      : C:\IRI\Python_Dash\ET_DSS_hist\TEST\
 TREATMENT  1   : ERiMA DCC1                MZCER047
  

!     WATER BALANCE PARAMETERS
!     ========================                 --mm--

!     Soil H20 (start) on Year/day 2008/165    586.18
!     Soil H20 (final) on Year/day 2008/309    572.42
!     Effective Irrigation                       0.00
!     Precipitation                            626.50
!     Water added with new mulch                 0.00
!     Drainage                                  49.82
!     Tiledrain flow                             0.00
!     Runoff                                    38.47
!     Mulch evaporation                          0.00
!     Soil Evaporation                         177.53
!     Transpiration                            374.43
!     Potential ET                             618.27

!     Initial mulch water content                0.00
!     Final mulch water content                  0.00

!     Final Balance                             0.004


*DSSAT Cropping System Model Ver. 4.7.5.008 -release  JAN 07, 2021 20:14:52

*RUN  63        : ERiMA DCC1                MZCER047 ETMZawas    1
 MODEL          : MZCER047 - Maize
 EXPERIMENT     : ETMZawas SN MELKSSAL
 DATA PATH      : C:\IRI\Python_Dash\ET_DSS_hist\TEST\
 TREATMENT  1   : ERiMA DCC1                MZCER047
  

!     WATER BALANCE PARAMETERS
!     ========================                 --mm--

!     Soil H20 (start) on Year/day 2009/165    586.18
!     Soil H20 (final) on Year/day 2009/300    485.21
!     Effective Irrigation                       0.00
!     Precipitation                            362.70
!     Water added with new mulch                 0.00
!     Drainage                                   0.00
!     Tiledrain flow                             0.00
!     Runoff                                     5.85
!     Mulch evaporation                          0.00
!     Soil Evaporation                         152.68
!     Transpiration                            305.13
!     Potential ET                             599.13

!     Initial mulch water content                0.00
!     Final mulch water content                  0.00

!     Final Balance                             0.006


*DSSAT Cropping System Model Ver. 4.7.5.008 -release  JAN 07, 2021 20:14:52

*RUN  64        : ERiMA DCC1                MZCER047 ETMZawas    1
 MODEL          : MZCER047 - Maize
 EXPERIMENT     : ETMZawas SN MELKSSAL
 DATA PATH      : C:\IRI\Python_Dash\ET_DSS_hist\TEST\
 TREATMENT  1   : ERiMA DCC1                MZCER047
  

!     WATER BALANCE PARAMETERS
!     ========================                 --mm--

!     Soil H20 (start) on Year/day 2010/165    586.18
!     Soil H20 (final) on Year/day 2010/306    497.76
!     Effective Irrigation                       0.00
!     Precipitation                            494.50
!     Water added with new mulch                 0.00
!     Drainage                                  27.32
!     Tiledrain flow                             0.00
!     Runoff                                    40.51
!     Mulch evaporation                          0.00
!     Soil Evaporation                         128.93
!     Transpiration                            386.15
!     Potential ET                             621.99

!     Initial mulch water content                0.00
!     Final mulch water content                  0.00

!     Final Balance                             0.015


*DSSAT Cropping System Model Ver. 4.7.5.008 -release  JAN 07, 2021 20:14:52

*RUN  65        : ERiMA DCC1                MZCER047 ETMZawas    1
 MODEL          : MZCER047 - Maize
 EXPERIMENT     : ETMZawas SN MELKSSAL
 DATA PATH      : C:\IRI\Python_Dash\ET_DSS_hist\TEST\
 TREATMENT  1   : ERiMA DCC1                MZCER047
  

!     WATER BALANCE PARAMETERS
!     ========================                 --mm--

!     Soil H20 (start) on Year/day 2011/165    586.18
!     Soil H20 (final) on Year/day 2011/305    492.75
!     Effective Irrigation                       0.00
!     Precipitation                            473.40
!     Water added with new mulch                 0.00
!     Drainage                                  31.29
!     Tiledrain flow                             0.00
!     Runoff                                    12.73
!     Mulch evaporation                          0.00
!     Soil Evaporation                         144.71
!     Transpiration                            378.10
!     Potential ET                             627.20

!     Initial mulch water content                0.00
!     Final mulch water content                  0.00

!     Final Balance                             0.011


*DSSAT Cropping System Model Ver. 4.7.5.008 -release  JAN 07, 2021 20:14:52

*RUN  66        : ERiMA DCC1                MZCER047 ETMZawas    1
 MODEL          : MZCER047 - Maize
 EXPERIMENT     : ETMZawas SN MELKSSAL
 DATA PATH      : C:\IRI\Python_Dash\ET_DSS_hist\TEST\
 TREATMENT  1   : ERiMA DCC1                MZCER047
  

!     WATER BALANCE PARAMETERS
!     ========================                 --mm--

!     Soil H20 (start) on Year/day 2012/165    586.18
!     Soil H20 (final) on Year/day 2012/303    488.09
!     Effective Irrigation                       0.00
!     Precipitation                            485.90
!     Water added with new mulch                 0.00
!     Drainage                                  26.65
!     Tiledrain flow                             0.00
!     Runoff                                    22.44
!     Mulch evaporation                          0.00
!     Soil Evaporation                         152.65
!     Transpiration                            382.24
!     Potential ET                             615.96

!     Initial mulch water content                0.00
!     Final mulch water content                  0.00

!     Final Balance                             0.006


*DSSAT Cropping System Model Ver. 4.7.5.008 -release  JAN 07, 2021 20:14:52

*RUN  67        : ERiMA DCC1                MZCER047 ETMZawas    1
 MODEL          : MZCER047 - Maize
 EXPERIMENT     : ETMZawas SN MELKSSAL
 DATA PATH      : C:\IRI\Python_Dash\ET_DSS_hist\TEST\
 TREATMENT  1   : ERiMA DCC1                MZCER047
  

!     WATER BALANCE PARAMETERS
!     ========================                 --mm--

!     Soil H20 (start) on Year/day 2013/165    586.18
!     Soil H20 (final) on Year/day 2013/304    496.92
!     Effective Irrigation                       0.00
!     Precipitation                            559.10
!     Water added with new mulch                 0.00
!     Drainage                                  55.31
!     Tiledrain flow                             0.00
!     Runoff                                    30.82
!     Mulch evaporation                          0.00
!     Soil Evaporation                         170.29
!     Transpiration                            391.93
!     Potential ET                             610.46

!     Initial mulch water content                0.00
!     Final mulch water content                  0.00

!     Final Balance                             0.009


*DSSAT Cropping System Model Ver. 4.7.5.008 -release  JAN 07, 2021 20:14:52

*RUN  68        : ERiMA DCC1                MZCER047 ETMZawas    1
 MODEL          : MZCER047 - Maize
 EXPERIMENT     : ETMZawas SN MELKSSAL
 DATA PATH      : C:\IRI\Python_Dash\ET_DSS_hist\TEST\
 TREATMENT  1   : ERiMA DCC1                MZCER047
  

!     WATER BALANCE PARAMETERS
!     ========================                 --mm--

!     Soil H20 (start) on Year/day 2014/165    586.18
!     Soil H20 (final) on Year/day 2014/297    557.68
!     Effective Irrigation                       0.00
!     Precipitation                            538.80
!     Water added with new mulch                 0.00
!     Drainage                                  34.51
!     Tiledrain flow                             0.00
!     Runoff                                    37.31
!     Mulch evaporation                          0.00
!     Soil Evaporation                         125.46
!     Transpiration                            370.01
!     Potential ET                             580.03

!     Initial mulch water content                0.00
!     Final mulch water content                  0.00

!     Final Balance                             0.011

