*SOIL WATER DAILY OUTPUT FILE

*DSSAT Cropping System Model Ver. 4.7.5.008 -release  JAN 07, 2021 20:33:24

*RUN   1        : ERiMA DCC1                MZCER047 ETMZmelk    1
 MODEL          : MZCER047 - Maize
 EXPERIMENT     : ETMZmelk SN MELKSSAL
 DATA PATH      : C:\IRI\Python_Dash\ET_DSS_hist\TEST\
 TREATMENT  1   : ERiMA DCC1                MZCER047
  
!                                                                                                 Soil water content (mm3/mm3) by soil depth (cm):
!                                                                                                 0-5    5-15   15-20   20-35   35-50   50-65   65-81   81-97  97-118 118-200
@YEAR DOY   DAS  SWTD  SWXD   ROFC   DRNC   PREC  IR#C  IRRC  DTWT    MWTD  TDFD  TDFC   ROFD    SW1D    SW2D    SW3D    SW4D    SW5D    SW6D    SW7D    SW8D    SW9D    SW10
 1981 164     0   586   288      0      0      0     0     0     0    0.00   0.0   0.0   0.00   0.231   0.231   0.231   0.221   0.316   0.316   0.304   0.304   0.305   0.305
 1981 165     1   585   287      0      0      0     0     0   100    0.00   0.0   0.0   0.00   0.215   0.230   0.231   0.221   0.316   0.316   0.304   0.304   0.305   0.305
 1981 166     2   584   286      0      0      0     0     0   200    0.00   0.0   0.0   0.00   0.200   0.229   0.230   0.221   0.316   0.316   0.304   0.304   0.305   0.305
 1981 167     3   583   285      0      0      0     0     0   200    0.00   0.0   0.0   0.00   0.186   0.228   0.230   0.221   0.316   0.316   0.304   0.304   0.305   0.305
 1981 168     4   583   284      0      0      0     0     0   200    0.00   0.0   0.0   0.00   0.174   0.227   0.230   0.220   0.316   0.316   0.304   0.304   0.305   0.305
 1981 169     5   582   284      0      0      0     0     0   200    0.00   0.0   0.0   0.00   0.162   0.226   0.229   0.220   0.316   0.316   0.304   0.304   0.305   0.305
 1981 170     6   581   283      0      0      0     0     0   200    0.00   0.0   0.0   0.00   0.152   0.225   0.229   0.220   0.315   0.316   0.304   0.304   0.305   0.305
 1981 171     7   580   282      0      0      0     0     0   200    0.00   0.0   0.0   0.00   0.143   0.224   0.229   0.220   0.315   0.316   0.304   0.304   0.305   0.305
 1981 172     8   580   282      0      0      0     0     0   200    0.00   0.0   0.0   0.00   0.134   0.223   0.228   0.220   0.315   0.316   0.304   0.304   0.305   0.305
 1981 173     9   579   281      0      0      0     0     0   200    0.00   0.0   0.0   0.00   0.127   0.221   0.228   0.220   0.315   0.316   0.304   0.304   0.305   0.305
 1981 174    10   579   281      0      0      0     0     0   200    0.00   0.0   0.0   0.00   0.120   0.220   0.228   0.220   0.315   0.315   0.304   0.304   0.305   0.305
 1981 175    11   583   285      0      0      5     0     0   200    0.00   0.0   0.0   0.00   0.216   0.219   0.227   0.219   0.315   0.315   0.304   0.304   0.305   0.305
 1981 176    12   586   288      0      0     10     0     0   200    0.00   0.0   0.0   0.00   0.260   0.228   0.227   0.219   0.315   0.315   0.304   0.304   0.305   0.305
 1981 177    13   585   287      0      0     10     0     0   200    0.00   0.0   0.0   0.00   0.239   0.226   0.226   0.219   0.315   0.315   0.304   0.304   0.305   0.305
 1981 178    14   584   286      0      0     10     0     0   200    0.00   0.0   0.0   0.00   0.219   0.224   0.226   0.219   0.315   0.315   0.304   0.304   0.305   0.305
 1981 179    15   583   284      0      0     10     0     0   200    0.00   0.0   0.0   0.00   0.202   0.222   0.225   0.219   0.315   0.315   0.304   0.304   0.305   0.305
 1981 180    16   585   286      0      0     13     0     0   200    0.00   0.0   0.0   0.00   0.247   0.221   0.223   0.219   0.314   0.315   0.304   0.304   0.305   0.305
 1981 181    17   583   285      0      0     13     0     0   200    0.00   0.0   0.0   0.00   0.224   0.219   0.222   0.219   0.314   0.315   0.303   0.304   0.305   0.305
 1981 182    18   582   284      0      0     13     0     0   200    0.00   0.0   0.0   0.00   0.204   0.216   0.221   0.218   0.314   0.315   0.303   0.304   0.305   0.305
 1981 183    19   580   282      0      0     13     0     0   200    0.00   0.0   0.0   0.00   0.189   0.213   0.218   0.218   0.314   0.315   0.303   0.304   0.305   0.305
 1981 184    20   584   286      0      0     18     0     0   200    0.00   0.0   0.0   0.00   0.256   0.217   0.216   0.218   0.314   0.315   0.303   0.304   0.305   0.305
 1981 185    21   583   284      0      0     22     0     0   200    0.00   0.0   0.0   0.00   0.268   0.230   0.211   0.215   0.311   0.313   0.301   0.302   0.303   0.304
 1981 186    22   578   280      0      0     22     0     0   200    0.00   0.0   0.0   0.00   0.241   0.223   0.208   0.212   0.308   0.310   0.300   0.300   0.302   0.302
 1981 187    23   576   277      0      0     22     0     0   200    0.00   0.0   0.0   0.00   0.213   0.218   0.206   0.211   0.308   0.310   0.300   0.300   0.302   0.302
 1981 188    24   573   275      0      0     22     0     0   200    0.00   0.0   0.0   0.00   0.192   0.210   0.204   0.209   0.308   0.310   0.300   0.300   0.302   0.302
 1981 189    25   571   273      0      0     22     0     0   200    0.00   0.0   0.0   0.00   0.178   0.204   0.201   0.207   0.308   0.310   0.300   0.300   0.302   0.302
 1981 190    26   570   272      0      0     22     0     0   200    0.00   0.0   0.0   0.00   0.166   0.199   0.199   0.203   0.308   0.310   0.300   0.300   0.302   0.302
 1981 191    27   578   280      0      0     32     0     0   200    0.00   0.0   0.0   0.00   0.296   0.227   0.196   0.199   0.308   0.310   0.300   0.300   0.302   0.302
 1981 192    28   587   289      0      0     45     0     0   200    0.00   0.0   0.0   0.27   0.321   0.279   0.266   0.201   0.306   0.309   0.299   0.299   0.301   0.302
 1981 193    29   607   308      6      0     75     0     0   200    0.00   0.0   0.0   6.22   0.323   0.319   0.322   0.274   0.318   0.313   0.298   0.299   0.301   0.301
 1981 194    30   599   301      6      2     75     0     0   200    0.00   0.0   0.0   0.00   0.263   0.269   0.274   0.264   0.316   0.314   0.303   0.303   0.304   0.304
 1981 195    31   594   296      6      2     75     0     0   200    0.00   0.0   0.0   0.00   0.244   0.251   0.256   0.261   0.315   0.315   0.303   0.303   0.304   0.304
 1981 196    32   591   293      6      2     75     0     0   200    0.00   0.0   0.0   0.00   0.218   0.241   0.248   0.260   0.314   0.315   0.303   0.303   0.304   0.304
 1981 197    33   588   290      6      2     75     0     0   200    0.00   0.0   0.0   0.00   0.198   0.227   0.238   0.257   0.314   0.315   0.303   0.303   0.304   0.304
 1981 198    34   593   295      6      2     83     0     0   200    0.00   0.0   0.0   0.00   0.286   0.241   0.226   0.254   0.314   0.315   0.303   0.303   0.304   0.304
 1981 199    35   598   300      7      2     92     0     0   200    0.00   0.0   0.0   0.02   0.320   0.266   0.262   0.256   0.313   0.314   0.302   0.302   0.304   0.304
 1981 200    36   594   296      7      2     92     0     0   200    0.00   0.0   0.0   0.00   0.267   0.249   0.251   0.260   0.315   0.315   0.302   0.302   0.303   0.303
 1981 201    37   598   300      7      2    101     0     0   200    0.00   0.0   0.0   0.00   0.323   0.262   0.264   0.262   0.316   0.314   0.301   0.301   0.303   0.303
 1981 202    38   594   296      7      2    101     0     0   200    0.00   0.0   0.0   0.00   0.267   0.248   0.250   0.260   0.315   0.315   0.303   0.303   0.304   0.302
 1981 203    39   590   292      7      2    101     0     0   200    0.00   0.0   0.0   0.00   0.248   0.238   0.240   0.257   0.314   0.314   0.303   0.303   0.304   0.302
 1981 204    40   605   307      8      2    122     0     0   200    0.00   0.0   0.0   1.81   0.322   0.296   0.300   0.268   0.318   0.317   0.304   0.302   0.303   0.302
 1981 205    41   611   313      9      2    134     0     0   200    0.00   0.0   0.0   0.49   0.320   0.301   0.316   0.280   0.328   0.323   0.308   0.305   0.305   0.301
 1981 206    42   617   319      9      2    144     0     0   200    0.00   0.0   0.0   0.29   0.323   0.300   0.317   0.286   0.335   0.330   0.313   0.310   0.308   0.305
 1981 207    43   625   326      9      2    155     0     0   200    0.00   0.0   0.0   0.29   0.328   0.304   0.321   0.290   0.340   0.336   0.319   0.315   0.311   0.309
 1981 208    44   626   328      9      2    160     0     0   200    0.00   0.0   0.0   0.00   0.323   0.284   0.317   0.284   0.339   0.338   0.322   0.319   0.314   0.312
 1981 209    45   625   327      9      4    166     0     0   199    0.00   0.0   0.0   0.00   0.319   0.273   0.303   0.278   0.335   0.336   0.323   0.321   0.316   0.314
 1981 210    46   631   333     10      6    177     0     0   199    0.00   0.0   0.0   0.35   0.328   0.297   0.320   0.281   0.335   0.336   0.322   0.322   0.318   0.316
 1981 211    47   643   345     13      9    198     0     0   198    0.00   0.0   0.0   3.00   0.327   0.318   0.319   0.304   0.349   0.344   0.327   0.325   0.319   0.317
 1981 212    48   640   342     13     13    203     0     0   198    0.00   0.0   0.0   0.00   0.318   0.290   0.320   0.291   0.347   0.346   0.330   0.328   0.321   0.319
 1981 213    49   636   338     13     17    208     0     0   198    0.00   0.0   0.0   0.00   0.314   0.275   0.306   0.281   0.340   0.343   0.329   0.328   0.323   0.321
 1981 214    50   652   354     20     22    239     0     0   197    0.00   0.0   0.0   6.91   0.327   0.320   0.321   0.311   0.355   0.350   0.333   0.331   0.324   0.322
 1981 215    51   616   317     20     54    239     0     0   199    0.00   0.0   0.0   0.00   0.269   0.270   0.272   0.277   0.330   0.329   0.315   0.314   0.312   0.312
 1981 216    52   601   303     20     65    239     0     0   200    0.00   0.0   0.0   0.00   0.247   0.252   0.254   0.265   0.320   0.320   0.308   0.308   0.308   0.307
 1981 217    53   595   297     20     66    239     0     0   200    0.00   0.0   0.0   0.00   0.230   0.239   0.242   0.259   0.316   0.317   0.305   0.305   0.307   0.307
 1981 218    54   611   312     22     66    260     0     0   199    0.00   0.0   0.0   1.88   0.321   0.295   0.299   0.267   0.320   0.319   0.306   0.305   0.306   0.306
 1981 219    55   600   302     22     72    260     0     0   199    0.00   0.0   0.0   0.00   0.263   0.258   0.262   0.259   0.316   0.318   0.305   0.305   0.306   0.306
 1981 220    56   595   297     22     72    260     0     0   200    0.00   0.0   0.0   0.00   0.243   0.244   0.249   0.254   0.314   0.317   0.305   0.304   0.305   0.306
 1981 221    57   590   292     22     72    260     0     0   200    0.00   0.0   0.0   0.00   0.223   0.229   0.235   0.248   0.313   0.316   0.304   0.304   0.305   0.305
 1981 222    58   586   288     22     72    260     0     0   200    0.00   0.0   0.0   0.00   0.198   0.216   0.224   0.244   0.312   0.316   0.304   0.304   0.305   0.305
 1981 223    59   587   289     22     72    265     0     0   200    0.00   0.0   0.0   0.00   0.259   0.219   0.212   0.237   0.311   0.315   0.304   0.304   0.305   0.305
 1981 224    60   596   298     22     72    277     0     0   200    0.00   0.0   0.0   0.05   0.323   0.268   0.251   0.233   0.310   0.315   0.303   0.303   0.305   0.305
 1981 225    61   601   303     22     72    287     0     0   200    0.00   0.0   0.0   0.11   0.319   0.284   0.290   0.249   0.309   0.314   0.303   0.303   0.304   0.304
 1981 226    62   600   302     22     72    291     0     0   200    0.00   0.0   0.0   0.00   0.304   0.270   0.289   0.261   0.310   0.313   0.302   0.302   0.304   0.304
 1981 227    63   596   298     22     72    291     0     0   200    0.00   0.0   0.0   0.00   0.259   0.250   0.259   0.259   0.315   0.315   0.303   0.303   0.305   0.305
 1981 228    64   596   298     22     72    295     0     0   200    0.00   0.0   0.0   0.00   0.282   0.255   0.257   0.258   0.314   0.314   0.303   0.303   0.304   0.304
 1981 229    65   595   297     22     72    298     0     0   200    0.00   0.0   0.0   0.00   0.282   0.253   0.255   0.257   0.312   0.313   0.302   0.303   0.304   0.304
 1981 230    66   596   298     22     72    305     0     0   200    0.00   0.0   0.0   0.00   0.308   0.257   0.260   0.258   0.310   0.312   0.302   0.302   0.303   0.303
 1981 231    67   590   292     22     72    305     0     0   200    0.00   0.0   0.0   0.00   0.256   0.243   0.245   0.257   0.310   0.311   0.301   0.301   0.303   0.303
 1981 232    68   589   291     22     72    309     0     0   200    0.00   0.0   0.0   0.00   0.276   0.247   0.236   0.252   0.309   0.310   0.300   0.301   0.302   0.302
 1981 233    69   584   286     22     72    309     0     0   200    0.00   0.0   0.0   0.00   0.248   0.238   0.223   0.246   0.307   0.309   0.300   0.300   0.302   0.302
 1981 234    70   601   303     24     72    332     0     0   200    0.00   0.0   0.0   2.35   0.324   0.302   0.303   0.262   0.310   0.308   0.299   0.300   0.301   0.302
 1981 235    71   597   299     24     72    332     0     0   200    0.00   0.0   0.0   0.00   0.269   0.264   0.265   0.259   0.315   0.315   0.303   0.303   0.305   0.305
 1981 236    72   593   295     24     72    332     0     0   200    0.00   0.0   0.0   0.00   0.249   0.250   0.252   0.259   0.313   0.314   0.303   0.303   0.304   0.304
 1981 237    73   589   291     24     72    332     0     0   200    0.00   0.0   0.0   0.00   0.220   0.238   0.241   0.255   0.312   0.314   0.303   0.303   0.304   0.304
 1981 238    74   598   300     24     72    345     0     0   200    0.00   0.0   0.0   0.15   0.328   0.268   0.265   0.258   0.311   0.313   0.302   0.302   0.304   0.304
 1981 239    75   593   295     24     72    345     0     0   200    0.00   0.0   0.0   0.00   0.270   0.249   0.249   0.258   0.314   0.315   0.303   0.303   0.303   0.303
 1981 240    76   588   290     24     72    345     0     0   200    0.00   0.0   0.0   0.00   0.245   0.238   0.236   0.252   0.312   0.313   0.303   0.302   0.303   0.303
 1981 241    77   584   285     24     72    345     0     0   200    0.00   0.0   0.0   0.00   0.216   0.225   0.224   0.247   0.312   0.313   0.303   0.302   0.303   0.303
 1981 242    78   596   298     25     72    362     0     0   200    0.00   0.0   0.0   0.61   0.329   0.275   0.268   0.249   0.310   0.312   0.302   0.302   0.302   0.303
 1981 243    79   592   294     25     72    362     0     0   200    0.00   0.0   0.0   0.00   0.273   0.255   0.253   0.259   0.315   0.311   0.301   0.301   0.302   0.302
 1981 244    80   588   290     25     72    362     0     0   200    0.00   0.0   0.0   0.00   0.253   0.250   0.244   0.254   0.313   0.310   0.301   0.301   0.301   0.302
 1981 245    81   583   285     25     72    362     0     0   200    0.00   0.0   0.0   0.00   0.221   0.235   0.230   0.247   0.312   0.309   0.301   0.301   0.301   0.302
 1981 246    82   579   281     25     72    362     0     0   200    0.00   0.0   0.0   0.00   0.199   0.223   0.219   0.242   0.311   0.309   0.301   0.301   0.301   0.302
 1981 247    83   584   286     25     72    372     0     0   200    0.00   0.0   0.0   0.00   0.314   0.247   0.210   0.232   0.309   0.307   0.300   0.300   0.301   0.301
 1981 248    84   589   291     25     72    382     0     0   200    0.00   0.0   0.0   0.04   0.323   0.275   0.269   0.232   0.307   0.305   0.299   0.299   0.300   0.301
 1981 249    85   584   286     25     72    382     0     0   200    0.00   0.0   0.0   0.00   0.269   0.254   0.252   0.245   0.305   0.304   0.299   0.299   0.300   0.300
 1981 250    86   596   297     26     72    398     0     0   200    0.00   0.0   0.0   0.91   0.323   0.295   0.302   0.261   0.308   0.303   0.298   0.298   0.299   0.300
 1981 251    87   590   292     26     72    398     0     0   200    0.00   0.0   0.0   0.00   0.267   0.260   0.264   0.256   0.314   0.314   0.303   0.301   0.299   0.299
 1981 252    88   585   287     26     72    398     0     0   200    0.00   0.0   0.0   0.00   0.245   0.248   0.250   0.251   0.311   0.312   0.302   0.300   0.298   0.299
 1981 253    89   581   283     26     72    398     0     0   200    0.00   0.0   0.0   0.00   0.219   0.238   0.241   0.245   0.310   0.312   0.302   0.300   0.298   0.299
 1981 254    90   583   285     26     72    405     0     0   200    0.00   0.0   0.0   0.00   0.292   0.253   0.232   0.239   0.309   0.310   0.302   0.299   0.298   0.298
 1981 255    91   579   281     26     72    405     0     0   200    0.00   0.0   0.0   0.00   0.257   0.249   0.226   0.232   0.306   0.309   0.301   0.299   0.297   0.298
 1981 256    92   575   277     26     72    405     0     0   200    0.00   0.0   0.0   0.00   0.231   0.241   0.220   0.226   0.305   0.308   0.301   0.299   0.297   0.298
 1981 257    93   577   279     26     72    410     0     0   200    0.00   0.0   0.0   0.00   0.281   0.252   0.215   0.221   0.304   0.307   0.300   0.298   0.296   0.297
 1981 258    94   581   283     26     72    418     0     0   200    0.00   0.0   0.0   0.00   0.322   0.269   0.261   0.217   0.302   0.305   0.299   0.297   0.296   0.297
 1981 259    95   582   283     26     72    424     0     0   200    0.00   0.0   0.0   0.00   0.321   0.271   0.277   0.224   0.299   0.303   0.298   0.297   0.295   0.296
 1981 260    96   576   278     26     72    424     0     0   200    0.00   0.0   0.0   0.00   0.267   0.253   0.256   0.237   0.297   0.301   0.297   0.296   0.295   0.296
 1981 261    97   578   280     26     72    430     0     0   200    0.00   0.0   0.0   0.00   0.305   0.263   0.264   0.237   0.295   0.299   0.297   0.295   0.294   0.295
 1981 262    98   597   299     31     72    459     0     0   200    0.00   0.0   0.0   5.60   0.324   0.320   0.321   0.278   0.318   0.303   0.296   0.294   0.293   0.295
 1981 263    99   592   294     31     72    459     0     0   200    0.00   0.0   0.0   0.00   0.268   0.273   0.274   0.262   0.315   0.314   0.303   0.303   0.304   0.301
 1981 264   100   591   293     31     72    464     0     0   200    0.00   0.0   0.0   0.00   0.290   0.265   0.275   0.260   0.315   0.315   0.302   0.302   0.303   0.300
 1981 265   101   593   295     31     72    470     0     0   200    0.00   0.0   0.0   0.00   0.316   0.270   0.281   0.262   0.316   0.316   0.301   0.301   0.303   0.299
 1981 266   102   588   290     31     72    470     0     0   200    0.00   0.0   0.0   0.00   0.266   0.254   0.259   0.257   0.313   0.314   0.303   0.303   0.304   0.304
 1981 267   103   583   285     31     72    470     0     0   200    0.00   0.0   0.0   0.00   0.245   0.245   0.250   0.250   0.310   0.312   0.302   0.302   0.303   0.303
 1981 268   104   580   281     31     72    470     0     0   200    0.00   0.0   0.0   0.00   0.222   0.239   0.244   0.245   0.309   0.311   0.302   0.302   0.303   0.303
 1981 269   105   584   286     31     72    478     0     0   200    0.00   0.0   0.0   0.00   0.305   0.258   0.251   0.241   0.307   0.309   0.301   0.301   0.303   0.303
 1981 270   106   579   281     31     72    478     0     0   200    0.00   0.0   0.0   0.00   0.262   0.251   0.252   0.240   0.305   0.307   0.300   0.300   0.302   0.302
 1981 271   107   574   276     31     72    478     0     0   200    0.00   0.0   0.0   0.00   0.246   0.242   0.244   0.234   0.302   0.305   0.298   0.299   0.301   0.301
 1981 272   108   572   274     31     72    478     0     0   200    0.00   0.0   0.0   0.00   0.224   0.237   0.240   0.230   0.301   0.304   0.298   0.299   0.301   0.301

*DSSAT Cropping System Model Ver. 4.7.5.008 -release  JAN 07, 2021 20:33:24

*RUN   2        : ERiMA DCC1                MZCER047 ETMZmelk    1
 MODEL          : MZCER047 - Maize
 EXPERIMENT     : ETMZmelk SN MELKSSAL
 DATA PATH      : C:\IRI\Python_Dash\ET_DSS_hist\TEST\
 TREATMENT  1   : ERiMA DCC1                MZCER047
  
!                                                                                                 Soil water content (mm3/mm3) by soil depth (cm):
!                                                                                                 0-5    5-15   15-20   20-35   35-50   50-65   65-81   81-97  97-118 118-200
@YEAR DOY   DAS  SWTD  SWXD   ROFC   DRNC   PREC  IR#C  IRRC  DTWT    MWTD  TDFD  TDFC   ROFD    SW1D    SW2D    SW3D    SW4D    SW5D    SW6D    SW7D    SW8D    SW9D    SW10
 1982 164     0   586   288      0      0      0     0     0     0    0.00   0.0   0.0   0.00   0.231   0.231   0.231   0.221   0.316   0.316   0.304   0.304   0.305   0.305
 1982 165     1   585   287      0      0      0     0     0   100    0.00   0.0   0.0   0.00   0.215   0.230   0.231   0.221   0.316   0.316   0.304   0.304   0.305   0.305
 1982 166     2   584   286      0      0      0     0     0   200    0.00   0.0   0.0   0.00   0.200   0.229   0.230   0.221   0.316   0.316   0.304   0.304   0.305   0.305
 1982 167     3   583   285      0      0      0     0     0   200    0.00   0.0   0.0   0.00   0.186   0.228   0.230   0.221   0.316   0.316   0.304   0.304   0.305   0.305
 1982 168     4   583   284      0      0      0     0     0   200    0.00   0.0   0.0   0.00   0.174   0.227   0.230   0.220   0.316   0.316   0.304   0.304   0.305   0.305
 1982 169     5   582   284      0      0      0     0     0   200    0.00   0.0   0.0   0.00   0.162   0.226   0.229   0.220   0.316   0.316   0.304   0.304   0.305   0.305
 1982 170     6   581   283      0      0      0     0     0   200    0.00   0.0   0.0   0.00   0.152   0.225   0.229   0.220   0.315   0.316   0.304   0.304   0.305   0.305
 1982 171     7   585   287      0      0      5     0     0   200    0.00   0.0   0.0   0.00   0.240   0.224   0.229   0.220   0.315   0.316   0.304   0.304   0.305   0.305
 1982 172     8   584   286      0      0      5     0     0   200    0.00   0.0   0.0   0.00   0.223   0.223   0.228   0.220   0.315   0.316   0.304   0.304   0.305   0.305
 1982 173     9   583   285      0      0      5     0     0   200    0.00   0.0   0.0   0.00   0.207   0.222   0.228   0.220   0.315   0.316   0.304   0.304   0.305   0.305
 1982 174    10   582   284      0      0      5     0     0   200    0.00   0.0   0.0   0.00   0.192   0.221   0.228   0.220   0.315   0.315   0.304   0.304   0.305   0.305
 1982 175    11   582   283      0      0      5     0     0   200    0.00   0.0   0.0   0.00   0.179   0.219   0.227   0.219   0.315   0.315   0.304   0.304   0.305   0.305
 1982 176    12   581   283      0      0      5     0     0   200    0.00   0.0   0.0   0.00   0.168   0.218   0.227   0.219   0.315   0.315   0.304   0.304   0.305   0.305
 1982 177    13   580   282      0      0      5     0     0   200    0.00   0.0   0.0   0.00   0.157   0.216   0.226   0.219   0.315   0.315   0.304   0.304   0.305   0.305
 1982 178    14   579   281      0      0      5     0     0   200    0.00   0.0   0.0   0.00   0.147   0.214   0.225   0.219   0.315   0.315   0.304   0.304   0.305   0.305
 1982 179    15   586   288      0      0     13     0     0   200    0.00   0.0   0.0   0.00   0.266   0.225   0.224   0.219   0.315   0.315   0.304   0.304   0.305   0.305
 1982 180    16   585   287      0      0     18     0     0   200    0.00   0.0   0.0   0.00   0.282   0.244   0.219   0.216   0.311   0.312   0.301   0.302   0.303   0.303
 1982 181    17   587   288      0      0     25     0     0   200    0.00   0.0   0.0   0.00   0.310   0.263   0.249   0.213   0.308   0.310   0.299   0.300   0.302   0.302
 1982 182    18   582   284      0      0     25     0     0   200    0.00   0.0   0.0   0.00   0.261   0.255   0.255   0.217   0.305   0.307   0.297   0.298   0.300   0.301
 1982 183    19   576   278      0      0     25     0     0   200    0.00   0.0   0.0   0.00   0.239   0.246   0.249   0.214   0.302   0.305   0.295   0.296   0.299   0.299
 1982 184    20   577   279      0      0     31     0     0   200    0.00   0.0   0.0   0.00   0.283   0.255   0.256   0.211   0.299   0.303   0.293   0.295   0.297   0.298
 1982 185    21   577   279      0      0     36     0     0   200    0.00   0.0   0.0   0.00   0.295   0.262   0.266   0.215   0.296   0.300   0.292   0.293   0.296   0.297
 1982 186    22   576   277      0      0     41     0     0   200    0.00   0.0   0.0   0.00   0.293   0.263   0.272   0.222   0.293   0.298   0.290   0.292   0.294   0.296
 1982 187    23   570   272      0      0     41     0     0   200    0.00   0.0   0.0   0.00   0.250   0.250   0.257   0.230   0.291   0.296   0.288   0.290   0.293   0.294
 1982 188    24   568   270      0      0     41     0     0   200    0.00   0.0   0.0   0.00   0.226   0.244   0.252   0.229   0.291   0.296   0.288   0.290   0.293   0.294
 1982 189    25   565   267      0      0     41     0     0   200    0.00   0.0   0.0   0.00   0.204   0.235   0.246   0.228   0.291   0.296   0.288   0.290   0.293   0.294
 1982 190    26   563   265      0      0     41     0     0   200    0.00   0.0   0.0   0.00   0.189   0.226   0.240   0.227   0.290   0.296   0.288   0.290   0.293   0.294
 1982 191    27   561   263      0      0     41     0     0   200    0.00   0.0   0.0   0.00   0.176   0.218   0.232   0.226   0.290   0.295   0.288   0.290   0.293   0.294
 1982 192    28   558   260      0      0     41     0     0   200    0.00   0.0   0.0   0.00   0.165   0.209   0.215   0.223   0.290   0.295   0.288   0.290   0.293   0.294
 1982 193    29   556   257      0      0     41     0     0   200    0.00   0.0   0.0   0.00   0.154   0.201   0.206   0.217   0.290   0.295   0.288   0.290   0.293   0.294
 1982 194    30   553   255      0      0     41     0     0   200    0.00   0.0   0.0   0.00   0.145   0.195   0.200   0.209   0.290   0.295   0.288   0.290   0.293   0.294
 1982 195    31   551   253      0      0     41     0     0   200    0.00   0.0   0.0   0.00   0.136   0.191   0.196   0.202   0.290   0.295   0.288   0.290   0.293   0.294
 1982 196    32   548   250      0      0     41     0     0   200    0.00   0.0   0.0   0.00   0.128   0.187   0.193   0.191   0.290   0.295   0.288   0.290   0.293   0.294
 1982 197    33   545   247      0      0     41     0     0   200    0.00   0.0   0.0   0.00   0.121   0.184   0.189   0.179   0.290   0.295   0.288   0.290   0.293   0.294
 1982 198    34   543   245      0      0     41     0     0   200    0.00   0.0   0.0   0.00   0.115   0.181   0.187   0.167   0.289   0.295   0.288   0.290   0.293   0.294
 1982 199    35   541   243      0      0     41     0     0   200    0.00   0.0   0.0   0.00   0.109   0.178   0.184   0.161   0.289   0.295   0.288   0.290   0.293   0.294
 1982 200    36   540   242      0      0     41     0     0   200    0.00   0.0   0.0   0.00   0.103   0.176   0.182   0.157   0.289   0.295   0.287   0.290   0.293   0.294
 1982 201    37   539   241      0      0     41     0     0   200    0.00   0.0   0.0   0.00   0.098   0.173   0.180   0.155   0.288   0.295   0.287   0.290   0.293   0.294
 1982 202    38   551   253      0      0     54     0     0   200    0.00   0.0   0.0   0.00   0.296   0.201   0.178   0.153   0.288   0.295   0.287   0.290   0.293   0.294
 1982 203    39   555   257      0      0     61     0     0   200    0.00   0.0   0.0   0.00   0.319   0.241   0.177   0.152   0.287   0.294   0.287   0.289   0.292   0.294
 1982 204    40   551   253      0      0     61     0     0   200    0.00   0.0   0.0   0.00   0.267   0.236   0.175   0.150   0.286   0.293   0.286   0.289   0.292   0.293
 1982 205    41   558   260      0      0     72     0     0   200    0.00   0.0   0.0   0.09   0.323   0.260   0.239   0.149   0.285   0.292   0.285   0.288   0.291   0.293
 1982 206    42   559   261      0      0     77     0     0   200    0.00   0.0   0.0   0.00   0.321   0.262   0.261   0.155   0.284   0.292   0.285   0.287   0.291   0.292
 1982 207    43   558   260      0      0     80     0     0   200    0.00   0.0   0.0   0.00   0.301   0.256   0.263   0.162   0.283   0.291   0.284   0.287   0.290   0.292
 1982 208    44   557   259      0      0     84     0     0   200    0.00   0.0   0.0   0.00   0.300   0.252   0.260   0.168   0.281   0.290   0.283   0.286   0.290   0.291
 1982 209    45   563   265      0      0     95     0     0   200    0.00   0.0   0.0   0.12   0.324   0.272   0.283   0.185   0.280   0.289   0.282   0.285   0.289   0.291
 1982 210    46   568   269      0      0    105     0     0   200    0.00   0.0   0.0   0.10   0.324   0.281   0.302   0.210   0.279   0.288   0.282   0.285   0.288   0.290
 1982 211    47   568   270      0      0    108     0     0   200    0.00   0.0   0.0   0.00   0.312   0.270   0.294   0.229   0.278   0.287   0.281   0.284   0.288   0.290
 1982 212    48   575   277      1      0    120     0     0   200    0.00   0.0   0.0   0.34   0.327   0.289   0.315   0.260   0.277   0.287   0.281   0.284   0.288   0.290
 1982 213    49   577   279      1      0    126     0     0   200    0.00   0.0   0.0   0.00   0.328   0.278   0.309   0.271   0.292   0.286   0.280   0.283   0.287   0.289
 1982 214    50   581   283      1      0    132     0     0   200    0.00   0.0   0.0   0.00   0.331   0.280   0.308   0.276   0.313   0.286   0.280   0.283   0.287   0.289
 1982 215    51   585   287      1      0    141     0     0   200    0.00   0.0   0.0   0.09   0.324   0.283   0.314   0.278   0.325   0.300   0.279   0.283   0.287   0.289
 1982 216    52   583   285      1      0    145     0     0   200    0.00   0.0   0.0   0.00   0.307   0.264   0.294   0.275   0.328   0.316   0.280   0.282   0.286   0.288
 1982 217    53   579   281      1      0    145     0     0   200    0.00   0.0   0.0   0.00   0.265   0.244   0.260   0.264   0.320   0.316   0.303   0.288   0.286   0.288
 1982 218    54   585   287      1      0    155     0     0   200    0.00   0.0   0.0   0.03   0.326   0.265   0.272   0.265   0.319   0.318   0.306   0.287   0.285   0.288
 1982 219    55   581   283      1      0    155     0     0   200    0.00   0.0   0.0   0.00   0.275   0.247   0.253   0.262   0.316   0.317   0.306   0.304   0.286   0.287
 1982 220    56   588   290      1      0    166     0     0   200    0.00   0.0   0.0   0.07   0.328   0.272   0.277   0.265   0.318   0.318   0.306   0.306   0.286   0.287
 1982 221    57   603   305      3      0    187     0     0   200    0.00   0.0   0.0   2.63   0.329   0.317   0.319   0.286   0.331   0.326   0.310   0.308   0.291   0.287
 1982 222    58   605   307      3      0    193     0     0   200    0.00   0.0   0.0   0.01   0.325   0.290   0.316   0.286   0.336   0.332   0.315   0.312   0.300   0.286
 1982 223    59   600   302      3      0    193     0     0   200    0.00   0.0   0.0   0.00   0.272   0.254   0.268   0.268   0.323   0.322   0.308   0.307   0.305   0.305
 1982 224    60   608   310      4      0    205     0     0   200    0.00   0.0   0.0   0.20   0.327   0.278   0.290   0.271   0.324   0.323   0.309   0.308   0.307   0.307
 1982 225    61   625   327      8      0    230     0     0   200    0.00   0.0   0.0   4.07   0.326   0.314   0.317   0.296   0.340   0.333   0.316   0.312   0.309   0.308
 1982 226    62   607   309      8     15    230     0     0   200    0.00   0.0   0.0   0.00   0.279   0.273   0.276   0.275   0.325   0.322   0.308   0.307   0.306   0.306
 1982 227    63   598   300      8     20    230     0     0   200    0.00   0.0   0.0   0.00   0.255   0.250   0.254   0.264   0.319   0.318   0.305   0.305   0.306   0.306
 1982 228    64   612   314      9     20    249     0     0   200    0.00   0.0   0.0   1.57   0.327   0.297   0.307   0.272   0.323   0.321   0.307   0.306   0.306   0.308
 1982 229    65   601   303      9     27    249     0     0   200    0.00   0.0   0.0   0.00   0.275   0.261   0.268   0.264   0.318   0.317   0.305   0.306   0.306   0.307
 1982 230    66   612   314     10     27    267     0     0   200    0.00   0.0   0.0   1.13   0.325   0.295   0.311   0.272   0.323   0.321   0.307   0.306   0.306   0.306
 1982 231    67   602   304     10     35    267     0     0   200    0.00   0.0   0.0   0.00   0.278   0.264   0.272   0.264   0.318   0.317   0.306   0.306   0.306   0.306
 1982 232    68   597   299     10     36    267     0     0   200    0.00   0.0   0.0   0.00   0.254   0.247   0.252   0.260   0.317   0.316   0.306   0.305   0.305   0.306
 1982 233    69   592   294     10     36    267     0     0   200    0.00   0.0   0.0   0.00   0.241   0.231   0.238   0.255   0.315   0.315   0.305   0.305   0.305   0.305
 1982 234    70   587   289     10     36    267     0     0   200    0.00   0.0   0.0   0.00   0.226   0.215   0.223   0.249   0.314   0.314   0.304   0.304   0.304   0.305
 1982 235    71   582   284     10     36    267     0     0   200    0.00   0.0   0.0   0.00   0.212   0.206   0.209   0.241   0.312   0.313   0.304   0.303   0.304   0.304
 1982 236    72   579   281     10     36    267     0     0   200    0.00   0.0   0.0   0.00   0.193   0.201   0.203   0.232   0.311   0.312   0.304   0.303   0.304   0.304
 1982 237    73   607   309     22     36    311     0     0   200    0.00   0.0   0.0  11.14   0.333   0.323   0.323   0.255   0.315   0.310   0.303   0.303   0.303   0.304
 1982 238    74   599   301     22     39    311     0     0   200    0.00   0.0   0.0   0.00   0.276   0.272   0.273   0.259   0.315   0.315   0.303   0.303   0.305   0.305
 1982 239    75   595   297     22     39    311     0     0   200    0.00   0.0   0.0   0.00   0.254   0.252   0.253   0.258   0.314   0.315   0.303   0.303   0.305   0.305
 1982 240    76   591   293     22     39    311     0     0   200    0.00   0.0   0.0   0.00   0.228   0.239   0.241   0.253   0.314   0.314   0.303   0.303   0.304   0.305
 1982 241    77   586   288     22     39    311     0     0   200    0.00   0.0   0.0   0.00   0.204   0.225   0.228   0.247   0.313   0.314   0.303   0.303   0.304   0.305
 1982 242    78   582   284     22     39    311     0     0   200    0.00   0.0   0.0   0.00   0.188   0.211   0.211   0.239   0.312   0.313   0.303   0.303   0.304   0.305
 1982 243    79   601   303     25     39    339     0     0   200    0.00   0.0   0.0   3.53   0.331   0.299   0.291   0.243   0.308   0.310   0.302   0.303   0.304   0.304
 1982 244    80   596   298     25     39    339     0     0   200    0.00   0.0   0.0   0.00   0.276   0.264   0.261   0.257   0.314   0.315   0.303   0.302   0.303   0.303
 1982 245    81   591   293     25     39    339     0     0   200    0.00   0.0   0.0   0.00   0.252   0.249   0.249   0.254   0.312   0.313   0.303   0.302   0.303   0.303
 1982 246    82   587   289     25     39    339     0     0   200    0.00   0.0   0.0   0.00   0.228   0.238   0.239   0.248   0.311   0.312   0.303   0.302   0.303   0.303
 1982 247    83   583   285     25     39    339     0     0   200    0.00   0.0   0.0   0.00   0.206   0.227   0.229   0.242   0.310   0.311   0.302   0.301   0.303   0.303
 1982 248    84   591   293     25     39    352     0     0   200    0.00   0.0   0.0   0.06   0.331   0.259   0.250   0.234   0.308   0.309   0.302   0.301   0.302   0.302
 1982 249    85   586   288     25     39    352     0     0   200    0.00   0.0   0.0   0.00   0.274   0.248   0.249   0.236   0.305   0.308   0.301   0.300   0.301   0.302
 1982 250    86   580   282     25     39    352     0     0   200    0.00   0.0   0.0   0.00   0.249   0.238   0.235   0.226   0.302   0.305   0.300   0.299   0.301   0.301
 1982 251    87   575   277     25     39    352     0     0   200    0.00   0.0   0.0   0.00   0.224   0.226   0.225   0.218   0.301   0.304   0.300   0.299   0.301   0.301
 1982 252    88   571   273     25     39    352     0     0   200    0.00   0.0   0.0   0.00   0.203   0.215   0.216   0.208   0.299   0.303   0.300   0.299   0.301   0.301
 1982 253    89   567   269     25     39    352     0     0   200    0.00   0.0   0.0   0.00   0.188   0.209   0.210   0.197   0.297   0.301   0.300   0.299   0.301   0.301
 1982 254    90   563   265     25     39    352     0     0   200    0.00   0.0   0.0   0.00   0.175   0.205   0.206   0.184   0.295   0.299   0.300   0.299   0.301   0.301
 1982 255    91   560   262     25     39    352     0     0   200    0.00   0.0   0.0   0.00   0.164   0.202   0.204   0.174   0.293   0.297   0.300   0.299   0.301   0.301
 1982 256    92   570   272     25     39    365     0     0   200    0.00   0.0   0.0   0.00   0.318   0.245   0.202   0.165   0.291   0.296   0.300   0.299   0.301   0.301
 1982 257    93   582   284     27     39    382     0     0   200    0.00   0.0   0.0   1.32   0.326   0.302   0.298   0.181   0.288   0.294   0.299   0.298   0.300   0.301
 1982 258    94   577   279     27     39    382     0     0   200    0.00   0.0   0.0   0.00   0.274   0.267   0.267   0.212   0.286   0.292   0.298   0.298   0.299   0.300
 1982 259    95   574   276     27     39    382     0     0   200    0.00   0.0   0.0   0.00   0.255   0.255   0.256   0.213   0.284   0.290   0.297   0.297   0.299   0.300
 1982 260    96   570   272     27     39    385     0     0   200    0.00   0.0   0.0   0.00   0.264   0.251   0.251   0.204   0.281   0.288   0.296   0.296   0.298   0.299
 1982 261    97   564   266     27     39    385     0     0   200    0.00   0.0   0.0   0.00   0.244   0.239   0.239   0.194   0.277   0.285   0.295   0.295   0.297   0.298
 1982 262    98   562   264     27     39    387     0     0   200    0.00   0.0   0.0   0.00   0.252   0.241   0.233   0.188   0.276   0.283   0.295   0.295   0.297   0.298
 1982 263    99   559   261     27     39    387     0     0   200    0.00   0.0   0.0   0.00   0.229   0.234   0.226   0.182   0.274   0.282   0.295   0.295   0.297   0.298
 1982 264   100   555   257     27     39    387     0     0   200    0.00   0.0   0.0   0.00   0.209   0.226   0.220   0.174   0.273   0.281   0.295   0.295   0.297   0.298
 1982 265   101   552   254     27     39    387     0     0   200    0.00   0.0   0.0   0.00   0.193   0.219   0.216   0.168   0.271   0.280   0.295   0.295   0.297   0.298
 1982 266   102   549   251     27     39    387     0     0   200    0.00   0.0   0.0   0.00   0.180   0.213   0.211   0.162   0.268   0.277   0.295   0.295   0.297   0.298
 1982 267   103   546   248     27     39    387     0     0   200    0.00   0.0   0.0   0.00   0.168   0.207   0.206   0.156   0.264   0.274   0.295   0.295   0.297   0.298
 1982 268   104   542   244     27     39    387     0     0   200    0.00   0.0   0.0   0.00   0.157   0.202   0.202   0.152   0.259   0.270   0.295   0.295   0.297   0.298
 1982 269   105   540   242     27     39    387     0     0   200    0.00   0.0   0.0   0.00   0.147   0.199   0.200   0.150   0.254   0.266   0.295   0.295   0.297   0.298
 1982 270   106   537   239     27     39    387     0     0   200    0.00   0.0   0.0   0.00   0.138   0.196   0.197   0.148   0.249   0.262   0.294   0.295   0.297   0.298
 1982 271   107   535   237     27     39    387     0     0   200    0.00   0.0   0.0   0.00   0.130   0.194   0.196   0.147   0.245   0.258   0.294   0.295   0.297   0.298
 1982 272   108   532   234     27     39    387     0     0   200    0.00   0.0   0.0   0.00   0.123   0.192   0.194   0.145   0.238   0.252   0.294   0.295   0.297   0.298

*DSSAT Cropping System Model Ver. 4.7.5.008 -release  JAN 07, 2021 20:33:24

*RUN   3        : ERiMA DCC1                MZCER047 ETMZmelk    1
 MODEL          : MZCER047 - Maize
 EXPERIMENT     : ETMZmelk SN MELKSSAL
 DATA PATH      : C:\IRI\Python_Dash\ET_DSS_hist\TEST\
 TREATMENT  1   : ERiMA DCC1                MZCER047
  
!                                                                                                 Soil water content (mm3/mm3) by soil depth (cm):
!                                                                                                 0-5    5-15   15-20   20-35   35-50   50-65   65-81   81-97  97-118 118-200
@YEAR DOY   DAS  SWTD  SWXD   ROFC   DRNC   PREC  IR#C  IRRC  DTWT    MWTD  TDFD  TDFC   ROFD    SW1D    SW2D    SW3D    SW4D    SW5D    SW6D    SW7D    SW8D    SW9D    SW10
 1983 164     0   586   288      0      0      0     0     0     0    0.00   0.0   0.0   0.00   0.231   0.231   0.231   0.221   0.316   0.316   0.304   0.304   0.305   0.305
 1983 165     1   585   287      0      0      0     0     0   100    0.00   0.0   0.0   0.00   0.215   0.230   0.231   0.221   0.316   0.316   0.304   0.304   0.305   0.305
 1983 166     2   584   286      0      0      0     0     0   200    0.00   0.0   0.0   0.00   0.200   0.229   0.230   0.221   0.316   0.316   0.304   0.304   0.305   0.305
 1983 167     3   583   285      0      0      0     0     0   200    0.00   0.0   0.0   0.00   0.186   0.228   0.230   0.221   0.316   0.316   0.304   0.304   0.305   0.305
 1983 168     4   585   287      0      0      2     0     0   200    0.00   0.0   0.0   0.00   0.219   0.227   0.230   0.220   0.316   0.316   0.304   0.304   0.305   0.305
 1983 169     5   586   288      0      0      9     0     0   200    0.00   0.0   0.0   0.00   0.284   0.246   0.225   0.217   0.312   0.313   0.302   0.302   0.303   0.303
 1983 170     6   582   284      0      0      9     0     0   200    0.00   0.0   0.0   0.00   0.253   0.247   0.222   0.215   0.309   0.311   0.300   0.300   0.302   0.302
 1983 171     7   581   282      0      0      9     0     0   200    0.00   0.0   0.0   0.00   0.234   0.246   0.222   0.215   0.309   0.311   0.300   0.300   0.302   0.302
 1983 172     8   580   281      0      0      9     0     0   200    0.00   0.0   0.0   0.00   0.217   0.245   0.221   0.214   0.309   0.310   0.300   0.300   0.302   0.302
 1983 173     9   579   280      0      0      9     0     0   200    0.00   0.0   0.0   0.00   0.202   0.243   0.221   0.214   0.309   0.310   0.300   0.300   0.302   0.302
 1983 174    10   578   280      0      0      9     0     0   200    0.00   0.0   0.0   0.00   0.188   0.242   0.221   0.214   0.309   0.310   0.300   0.300   0.302   0.302
 1983 175    11   577   279      0      0      9     0     0   200    0.00   0.0   0.0   0.00   0.176   0.240   0.220   0.214   0.309   0.310   0.300   0.300   0.302   0.302
 1983 176    12   576   278      0      0      9     0     0   200    0.00   0.0   0.0   0.00   0.164   0.239   0.220   0.214   0.309   0.310   0.300   0.300   0.302   0.302
 1983 177    13   575   277      0      0      9     0     0   200    0.00   0.0   0.0   0.00   0.154   0.237   0.220   0.214   0.309   0.310   0.300   0.300   0.302   0.302
 1983 178    14   587   289      0      0     23     0     0   200    0.00   0.0   0.0   0.03   0.317   0.266   0.244   0.214   0.308   0.310   0.299   0.300   0.302   0.302
 1983 179    15   583   285      0      0     23     0     0   200    0.00   0.0   0.0   0.00   0.267   0.256   0.256   0.220   0.306   0.308   0.298   0.299   0.301   0.301
 1983 180    16   579   280      0      0     23     0     0   200    0.00   0.0   0.0   0.00   0.244   0.251   0.252   0.217   0.303   0.306   0.296   0.297   0.299   0.300
 1983 181    17   588   290      1      0     38     0     0   200    0.00   0.0   0.0   0.55   0.318   0.288   0.296   0.235   0.300   0.304   0.294   0.295   0.298   0.299
 1983 182    18   583   284      1      0     38     0     0   200    0.00   0.0   0.0   0.00   0.260   0.261   0.268   0.261   0.298   0.301   0.292   0.294   0.296   0.297
 1983 183    19   576   278      1      0     38     0     0   200    0.00   0.0   0.0   0.00   0.236   0.250   0.256   0.258   0.295   0.298   0.290   0.292   0.295   0.296
 1983 184    20   574   276      1      0     38     0     0   200    0.00   0.0   0.0   0.00   0.214   0.245   0.253   0.258   0.295   0.298   0.290   0.292   0.295   0.296
 1983 185    21   573   274      1      0     38     0     0   200    0.00   0.0   0.0   0.00   0.197   0.238   0.249   0.257   0.294   0.298   0.290   0.292   0.294   0.296
 1983 186    22   571   272      1      0     38     0     0   200    0.00   0.0   0.0   0.00   0.183   0.230   0.243   0.256   0.294   0.298   0.290   0.292   0.294   0.296
 1983 187    23   569   270      1      0     38     0     0   200    0.00   0.0   0.0   0.00   0.171   0.221   0.237   0.255   0.294   0.298   0.290   0.292   0.294   0.296
 1983 188    24   573   275      1      0     45     0     0   200    0.00   0.0   0.0   0.00   0.269   0.229   0.227   0.252   0.294   0.298   0.290   0.292   0.294   0.296
 1983 189    25   568   270      1      0     45     0     0   200    0.00   0.0   0.0   0.00   0.241   0.220   0.219   0.248   0.292   0.296   0.288   0.290   0.293   0.295
 1983 190    26   565   267      1      0     45     0     0   200    0.00   0.0   0.0   0.00   0.210   0.213   0.215   0.244   0.292   0.296   0.288   0.290   0.293   0.295
 1983 191    27   570   272      1      0     56     0     0   200    0.00   0.0   0.0   0.00   0.317   0.247   0.207   0.236   0.289   0.294   0.287   0.289   0.292   0.294
 1983 192    28   565   267      1      0     56     0     0   200    0.00   0.0   0.0   0.00   0.259   0.245   0.211   0.232   0.288   0.293   0.285   0.288   0.291   0.293
 1983 193    29   561   263      1      0     56     0     0   200    0.00   0.0   0.0   0.00   0.228   0.231   0.208   0.229   0.288   0.293   0.285   0.288   0.291   0.293
 1983 194    30   558   260      1      0     56     0     0   200    0.00   0.0   0.0   0.00   0.201   0.218   0.206   0.225   0.287   0.292   0.285   0.288   0.291   0.293
 1983 195    31   555   256      1      0     56     0     0   200    0.00   0.0   0.0   0.00   0.184   0.206   0.203   0.219   0.287   0.292   0.285   0.288   0.291   0.293
 1983 196    32   557   259      1      0     63     0     0   200    0.00   0.0   0.0   0.00   0.268   0.213   0.198   0.207   0.287   0.292   0.285   0.288   0.291   0.293
 1983 197    33   554   256      1      0     64     0     0   200    0.00   0.0   0.0   0.00   0.247   0.213   0.196   0.201   0.286   0.291   0.285   0.287   0.291   0.292
 1983 198    34   552   254      1      0     65     0     0   200    0.00   0.0   0.0   0.00   0.229   0.211   0.194   0.196   0.286   0.291   0.284   0.287   0.291   0.292
 1983 199    35   552   254      1      0     68     0     0   200    0.00   0.0   0.0   0.00   0.237   0.214   0.193   0.191   0.286   0.291   0.284   0.287   0.291   0.292
 1983 200    36   549   251      1      0     70     0     0   200    0.00   0.0   0.0   0.00   0.218   0.206   0.192   0.184   0.286   0.291   0.284   0.287   0.290   0.292
 1983 201    37   546   248      1      0     71     0     0   200    0.00   0.0   0.0   0.00   0.204   0.199   0.190   0.175   0.286   0.291   0.284   0.287   0.290   0.292
 1983 202    38   553   255      1      0     82     0     0   200    0.00   0.0   0.0   0.00   0.319   0.235   0.187   0.163   0.284   0.290   0.284   0.286   0.290   0.292
 1983 203    39   555   257      1      0     88     0     0   200    0.00   0.0   0.0   0.00   0.317   0.253   0.218   0.161   0.284   0.290   0.283   0.286   0.290   0.291
 1983 204    40   561   263      1      0     98     0     0   200    0.00   0.0   0.0   0.14   0.317   0.276   0.278   0.172   0.283   0.289   0.283   0.285   0.289   0.291
 1983 205    41   557   259      1      0     98     0     0   200    0.00   0.0   0.0   0.00   0.264   0.251   0.256   0.191   0.282   0.288   0.282   0.285   0.289   0.291
 1983 206    42   578   280      7      0    130     0     0   200    0.00   0.0   0.0   6.23   0.321   0.314   0.318   0.254   0.281   0.288   0.282   0.284   0.288   0.290
 1983 207    43   589   290      9      0    147     0     0   200    0.00   0.0   0.0   1.80   0.319   0.312   0.316   0.288   0.319   0.292   0.281   0.284   0.288   0.290
 1983 208    44   599   300     10      0    162     0     0   200    0.00   0.0   0.0   1.20   0.323   0.315   0.319   0.298   0.339   0.320   0.287   0.284   0.288   0.290
 1983 209    45   594   296     10      0    162     0     0   200    0.00   0.0   0.0   0.00   0.268   0.267   0.272   0.273   0.324   0.317   0.304   0.304   0.305   0.302
 1983 210    46   590   292     10      0    162     0     0   200    0.00   0.0   0.0   0.00   0.246   0.247   0.253   0.263   0.318   0.316   0.303   0.304   0.305   0.305
 1983 211    47   585   287     10      0    162     0     0   200    0.00   0.0   0.0   0.00   0.229   0.232   0.241   0.258   0.317   0.316   0.303   0.303   0.304   0.304
 1983 212    48   582   284     10      0    162     0     0   200    0.00   0.0   0.0   0.00   0.216   0.220   0.232   0.254   0.317   0.315   0.303   0.303   0.304   0.304
 1983 213    49   578   280     10      0    163     0     0   200    0.00   0.0   0.0   0.00   0.223   0.209   0.215   0.247   0.315   0.314   0.302   0.302   0.304   0.304
 1983 214    50   574   276     10      0    163     0     0   200    0.00   0.0   0.0   0.00   0.185   0.201   0.206   0.236   0.315   0.314   0.302   0.302   0.303   0.304
 1983 215    51   570   272     10      0    164     0     0   200    0.00   0.0   0.0   0.00   0.192   0.195   0.199   0.221   0.314   0.314   0.302   0.302   0.303   0.304
 1983 216    52   568   270     10      0    166     0     0   200    0.00   0.0   0.0   0.00   0.216   0.191   0.195   0.205   0.312   0.314   0.302   0.302   0.303   0.304
 1983 217    53   566   268     10      0    168     0     0   200    0.00   0.0   0.0   0.00   0.219   0.188   0.193   0.190   0.311   0.313   0.302   0.302   0.303   0.304
 1983 218    54   561   263     10      0    168     0     0   200    0.00   0.0   0.0   0.00   0.181   0.185   0.191   0.177   0.310   0.313   0.302   0.302   0.303   0.304
 1983 219    55   562   263     10      0    173     0     0   200    0.00   0.0   0.0   0.00   0.249   0.186   0.188   0.159   0.309   0.312   0.302   0.302   0.303   0.304
 1983 220    56   567   269     10      0    182     0     0   200    0.00   0.0   0.0   0.00   0.298   0.232   0.187   0.157   0.307   0.312   0.301   0.302   0.303   0.303
 1983 221    57   562   264     10      0    182     0     0   200    0.00   0.0   0.0   0.00   0.243   0.221   0.185   0.155   0.306   0.310   0.301   0.301   0.303   0.303
 1983 222    58   571   273     10      0    196     0     0   200    0.00   0.0   0.0   0.21   0.305   0.265   0.243   0.153   0.304   0.309   0.300   0.301   0.302   0.303
 1983 223    59   581   283     11      0    210     0     0   200    0.00   0.0   0.0   0.63   0.322   0.296   0.302   0.178   0.303   0.309   0.300   0.300   0.302   0.302
 1983 224    60   578   280     11      0    210     0     0   200    0.00   0.0   0.0   0.00   0.271   0.265   0.269   0.210   0.302   0.308   0.299   0.300   0.302   0.302
 1983 225    61   575   277     11      0    210     0     0   200    0.00   0.0   0.0   0.00   0.250   0.252   0.256   0.212   0.301   0.308   0.299   0.300   0.301   0.302
 1983 226    62   573   275     11      0    210     0     0   200    0.00   0.0   0.0   0.00   0.230   0.245   0.250   0.210   0.301   0.308   0.299   0.300   0.301   0.302
 1983 227    63   580   282     11      0    219     0     0   200    0.00   0.0   0.0   0.00   0.318   0.265   0.263   0.212   0.301   0.307   0.299   0.299   0.301   0.302
 1983 228    64   577   278     11      0    219     0     0   200    0.00   0.0   0.0   0.00   0.269   0.252   0.254   0.222   0.300   0.307   0.298   0.299   0.301   0.301
 1983 229    65   595   297     15      0    245     0     0   200    0.00   0.0   0.0   3.89   0.325   0.319   0.321   0.263   0.303   0.306   0.298   0.299   0.300   0.301
 1983 230    66   600   302     15      0    253     0     0   200    0.00   0.0   0.0   0.15   0.324   0.304   0.320   0.280   0.322   0.316   0.297   0.298   0.300   0.301
 1983 231    67   596   298     15      0    253     0     0   200    0.00   0.0   0.0   0.00   0.267   0.264   0.274   0.265   0.317   0.315   0.303   0.304   0.305   0.305
 1983 232    68   600   302     15      0    262     0     0   200    0.00   0.0   0.0   0.00   0.319   0.267   0.280   0.265   0.319   0.317   0.306   0.303   0.304   0.304
 1983 233    69   600   302     15      0    266     0     0   200    0.00   0.0   0.0   0.00   0.307   0.267   0.280   0.266   0.320   0.319   0.306   0.305   0.305   0.304
 1983 234    70   601   303     15      0    270     0     0   200    0.00   0.0   0.0   0.00   0.307   0.266   0.280   0.266   0.321   0.320   0.307   0.306   0.306   0.306
 1983 235    71   606   308     15      0    280     0     0   200    0.00   0.0   0.0   0.07   0.323   0.281   0.298   0.269   0.323   0.322   0.308   0.307   0.307   0.306
 1983 236    72   608   310     15      0    283     0     0   200    0.00   0.0   0.0   0.00   0.311   0.278   0.298   0.273   0.325   0.323   0.310   0.309   0.308   0.307
 1983 237    73   606   308     15      0    285     0     0   200    0.00   0.0   0.0   0.00   0.290   0.267   0.287   0.270   0.325   0.324   0.311   0.310   0.309   0.308
 1983 238    74   615   316     15      0    298     0     0   200    0.00   0.0   0.0   0.42   0.322   0.290   0.312   0.274   0.327   0.326   0.312   0.311   0.310   0.309
 1983 239    75   601   303     15      8    298     0     0   200    0.00   0.0   0.0   0.00   0.265   0.257   0.268   0.261   0.319   0.319   0.307   0.306   0.306   0.306
 1983 240    76   596   298     15      8    298     0     0   200    0.00   0.0   0.0   0.00   0.244   0.245   0.251   0.257   0.317   0.318   0.306   0.306   0.306   0.306
 1983 241    77   614   316     19      8    324     0     0   200    0.00   0.0   0.0   3.42   0.323   0.311   0.318   0.270   0.322   0.320   0.307   0.306   0.306   0.308
 1983 242    78   620   321     19      8    334     0     0   200    0.00   0.0   0.0   0.25   0.325   0.304   0.319   0.282   0.331   0.327   0.311   0.309   0.308   0.307
 1983 243    79   626   327     19      9    344     0     0   200    0.00   0.0   0.0   0.31   0.327   0.306   0.321   0.288   0.338   0.333   0.317   0.314   0.310   0.309
 1983 244    80   627   329     19     11    352     0     0   199    0.00   0.0   0.0   0.06   0.323   0.294   0.318   0.285   0.339   0.337   0.321   0.318   0.313   0.311
 1983 245    81   606   308     19     28    352     0     0   199    0.00   0.0   0.0   0.00   0.269   0.261   0.271   0.266   0.324   0.323   0.310   0.309   0.308   0.307
 1983 246    82   598   299     19     31    352     0     0   200    0.00   0.0   0.0   0.00   0.246   0.248   0.251   0.259   0.317   0.317   0.306   0.305   0.307   0.306
 1983 247    83   600   302     19     31    360     0     0   200    0.00   0.0   0.0   0.00   0.306   0.256   0.256   0.255   0.315   0.316   0.305   0.305   0.307   0.306
 1983 248    84   603   305     19     31    368     0     0   200    0.00   0.0   0.0   0.00   0.322   0.271   0.275   0.259   0.315   0.314   0.304   0.304   0.306   0.305
 1983 249    85   596   298     19     32    368     0     0   200    0.00   0.0   0.0   0.00   0.270   0.253   0.255   0.257   0.314   0.314   0.303   0.303   0.305   0.305
 1983 250    86   602   304     19     32    378     0     0   200    0.00   0.0   0.0   0.05   0.322   0.273   0.277   0.259   0.316   0.313   0.303   0.303   0.305   0.304
 1983 251    87   606   308     20     32    389     0     0   200    0.00   0.0   0.0   0.20   0.321   0.290   0.306   0.265   0.319   0.316   0.305   0.302   0.304   0.304
 1983 252    88   598   300     20     36    389     0     0   200    0.00   0.0   0.0   0.00   0.270   0.262   0.269   0.259   0.315   0.315   0.304   0.303   0.304   0.305
 1983 253    89   604   306     20     36    399     0     0   200    0.00   0.0   0.0   0.06   0.326   0.279   0.289   0.263   0.317   0.317   0.303   0.303   0.304   0.304
 1983 254    90   610   312     20     36    409     0     0   200    0.00   0.0   0.0   0.21   0.325   0.296   0.317   0.270   0.322   0.320   0.306   0.306   0.303   0.304
 1983 255    91   615   317     20     36    420     0     0   200    0.00   0.0   0.0   0.25   0.324   0.301   0.320   0.278   0.329   0.325   0.310   0.308   0.306   0.305
 1983 256    92   601   302     20     46    420     0     0   200    0.00   0.0   0.0   0.00   0.269   0.265   0.274   0.262   0.318   0.317   0.305   0.305   0.305   0.305
 1983 257    93   595   297     20     46    420     0     0   200    0.00   0.0   0.0   0.00   0.249   0.252   0.256   0.257   0.316   0.315   0.305   0.304   0.305   0.304
 1983 258    94   592   294     20     46    420     0     0   200    0.00   0.0   0.0   0.00   0.238   0.245   0.249   0.252   0.314   0.313   0.304   0.304   0.304   0.304
 1983 259    95   591   293     20     46    422     0     0   200    0.00   0.0   0.0   0.00   0.249   0.246   0.243   0.247   0.313   0.312   0.304   0.303   0.304   0.304
 1983 260    96   589   290     20     46    424     0     0   200    0.00   0.0   0.0   0.00   0.261   0.246   0.235   0.240   0.310   0.310   0.303   0.303   0.303   0.303
 1983 261    97   585   287     20     46    424     0     0   200    0.00   0.0   0.0   0.00   0.250   0.239   0.229   0.236   0.308   0.309   0.302   0.302   0.303   0.303
 1983 262    98   587   289     20     46    431     0     0   200    0.00   0.0   0.0   0.00   0.301   0.256   0.235   0.230   0.305   0.307   0.301   0.301   0.302   0.302
 1983 263    99   586   287     20     46    433     0     0   200    0.00   0.0   0.0   0.00   0.287   0.260   0.253   0.225   0.303   0.305   0.300   0.300   0.301   0.302
 1983 264   100   588   290     20     46    441     0     0   200    0.00   0.0   0.0   0.00   0.323   0.270   0.272   0.229   0.301   0.303   0.299   0.299   0.301   0.301
 1983 265   101   583   285     20     46    441     0     0   200    0.00   0.0   0.0   0.00   0.266   0.254   0.256   0.241   0.297   0.300   0.298   0.298   0.300   0.300
 1983 266   102   585   287     20     46    448     0     0   200    0.00   0.0   0.0   0.00   0.312   0.264   0.267   0.242   0.295   0.298   0.297   0.297   0.299   0.299
 1983 267   103   580   282     20     46    448     0     0   200    0.00   0.0   0.0   0.00   0.264   0.252   0.254   0.250   0.292   0.295   0.295   0.296   0.298   0.298

*DSSAT Cropping System Model Ver. 4.7.5.008 -release  JAN 07, 2021 20:33:24

*RUN   4        : ERiMA DCC1                MZCER047 ETMZmelk    1
 MODEL          : MZCER047 - Maize
 EXPERIMENT     : ETMZmelk SN MELKSSAL
 DATA PATH      : C:\IRI\Python_Dash\ET_DSS_hist\TEST\
 TREATMENT  1   : ERiMA DCC1                MZCER047
  
!                                                                                                 Soil water content (mm3/mm3) by soil depth (cm):
!                                                                                                 0-5    5-15   15-20   20-35   35-50   50-65   65-81   81-97  97-118 118-200
@YEAR DOY   DAS  SWTD  SWXD   ROFC   DRNC   PREC  IR#C  IRRC  DTWT    MWTD  TDFD  TDFC   ROFD    SW1D    SW2D    SW3D    SW4D    SW5D    SW6D    SW7D    SW8D    SW9D    SW10
 1984 164     0   586   288      0      0      0     0     0     0    0.00   0.0   0.0   0.00   0.231   0.231   0.231   0.221   0.316   0.316   0.304   0.304   0.305   0.305
 1984 165     1   585   287      0      0      0     0     0   100    0.00   0.0   0.0   0.00   0.215   0.230   0.231   0.221   0.316   0.316   0.304   0.304   0.305   0.305
 1984 166     2   584   286      0      0      0     0     0   200    0.00   0.0   0.0   0.00   0.200   0.229   0.230   0.221   0.316   0.316   0.304   0.304   0.305   0.305
 1984 167     3   583   285      0      0      0     0     0   200    0.00   0.0   0.0   0.00   0.186   0.228   0.230   0.221   0.316   0.316   0.304   0.304   0.305   0.305
 1984 168     4   583   284      0      0      0     0     0   200    0.00   0.0   0.0   0.00   0.174   0.227   0.230   0.220   0.316   0.316   0.304   0.304   0.305   0.305
 1984 169     5   582   284      0      0      0     0     0   200    0.00   0.0   0.0   0.00   0.162   0.226   0.229   0.220   0.316   0.316   0.304   0.304   0.305   0.305
 1984 170     6   581   283      0      0      0     0     0   200    0.00   0.0   0.0   0.00   0.152   0.225   0.229   0.220   0.315   0.316   0.304   0.304   0.305   0.305
 1984 171     7   580   282      0      0      0     0     0   200    0.00   0.0   0.0   0.00   0.143   0.224   0.229   0.220   0.315   0.316   0.304   0.304   0.305   0.305
 1984 172     8   580   282      0      0      0     0     0   200    0.00   0.0   0.0   0.00   0.134   0.223   0.228   0.220   0.315   0.316   0.304   0.304   0.305   0.305
 1984 173     9   581   283      0      0      2     0     0   200    0.00   0.0   0.0   0.00   0.163   0.222   0.228   0.220   0.315   0.316   0.304   0.304   0.305   0.305
 1984 174    10   580   282      0      0      2     0     0   200    0.00   0.0   0.0   0.00   0.153   0.221   0.228   0.220   0.315   0.315   0.304   0.304   0.305   0.305
 1984 175    11   584   286      0      0      6     0     0   200    0.00   0.0   0.0   0.00   0.221   0.219   0.227   0.219   0.315   0.315   0.304   0.304   0.305   0.305
 1984 176    12   585   286      0      0      8     0     0   200    0.00   0.0   0.0   0.00   0.243   0.218   0.227   0.219   0.315   0.315   0.304   0.304   0.305   0.305
 1984 177    13   583   285      0      0      8     0     0   200    0.00   0.0   0.0   0.00   0.225   0.217   0.227   0.219   0.315   0.315   0.304   0.304   0.305   0.305
 1984 178    14   594   296      0      0     24     0     0   200    0.00   0.0   0.0   0.48   0.319   0.277   0.270   0.224   0.312   0.313   0.302   0.302   0.303   0.304
 1984 179    15   589   291      0      0     24     0     0   200    0.00   0.0   0.0   0.00   0.264   0.260   0.260   0.242   0.309   0.310   0.300   0.300   0.302   0.302
 1984 180    16   584   286      0      0     24     0     0   200    0.00   0.0   0.0   0.00   0.243   0.253   0.255   0.239   0.306   0.308   0.298   0.299   0.300   0.301
 1984 181    17   585   287      0      0     30     0     0   200    0.00   0.0   0.0   0.00   0.284   0.260   0.262   0.239   0.303   0.306   0.296   0.297   0.299   0.300
 1984 182    18   580   282      0      0     30     0     0   200    0.00   0.0   0.0   0.00   0.249   0.252   0.257   0.241   0.300   0.303   0.294   0.295   0.297   0.298
 1984 183    19   578   280      0      0     30     0     0   200    0.00   0.0   0.0   0.00   0.227   0.248   0.255   0.241   0.300   0.303   0.294   0.295   0.297   0.298
 1984 184    20   577   278      0      0     30     0     0   200    0.00   0.0   0.0   0.00   0.208   0.244   0.253   0.241   0.300   0.303   0.294   0.295   0.297   0.298
 1984 185    21   575   277      0      0     30     0     0   200    0.00   0.0   0.0   0.00   0.192   0.239   0.250   0.240   0.299   0.303   0.294   0.295   0.297   0.298
 1984 186    22   574   275      0      0     30     0     0   200    0.00   0.0   0.0   0.00   0.179   0.233   0.246   0.240   0.299   0.303   0.294   0.295   0.297   0.298
 1984 187    23   572   274      0      0     30     0     0   200    0.00   0.0   0.0   0.00   0.167   0.226   0.242   0.239   0.299   0.303   0.294   0.295   0.297   0.298
 1984 188    24   582   284      0      0     42     0     0   200    0.00   0.0   0.0   0.00   0.311   0.256   0.245   0.238   0.299   0.303   0.294   0.295   0.297   0.298
 1984 189    25   576   278      0      0     42     0     0   200    0.00   0.0   0.0   0.00   0.257   0.248   0.251   0.237   0.296   0.300   0.292   0.293   0.296   0.297
 1984 190    26   574   276      0      0     42     0     0   200    0.00   0.0   0.0   0.00   0.232   0.241   0.246   0.236   0.296   0.300   0.292   0.293   0.296   0.297
 1984 191    27   571   273      0      0     42     0     0   200    0.00   0.0   0.0   0.00   0.209   0.233   0.241   0.235   0.296   0.300   0.292   0.293   0.296   0.297
 1984 192    28   569   271      0      0     42     0     0   200    0.00   0.0   0.0   0.00   0.193   0.224   0.234   0.234   0.296   0.300   0.292   0.293   0.296   0.297
 1984 193    29   567   269      0      0     42     0     0   200    0.00   0.0   0.0   0.00   0.179   0.216   0.225   0.231   0.296   0.300   0.292   0.293   0.296   0.297
 1984 194    30   564   266      0      0     42     0     0   200    0.00   0.0   0.0   0.00   0.167   0.207   0.213   0.227   0.296   0.300   0.292   0.293   0.296   0.297
 1984 195    31   561   263      0      0     42     0     0   200    0.00   0.0   0.0   0.00   0.156   0.201   0.205   0.221   0.296   0.300   0.292   0.293   0.296   0.297
 1984 196    32   559   261      0      0     42     0     0   200    0.00   0.0   0.0   0.00   0.147   0.196   0.201   0.213   0.296   0.300   0.292   0.293   0.296   0.297
 1984 197    33   557   259      0      0     42     0     0   200    0.00   0.0   0.0   0.00   0.138   0.192   0.197   0.204   0.296   0.300   0.292   0.293   0.296   0.297
 1984 198    34   554   256      0      0     42     0     0   200    0.00   0.0   0.0   0.00   0.130   0.188   0.193   0.192   0.295   0.300   0.292   0.293   0.296   0.297
 1984 199    35   555   257      0      0     47     0     0   200    0.00   0.0   0.0   0.00   0.205   0.184   0.190   0.179   0.295   0.300   0.291   0.293   0.296   0.297
 1984 200    36   557   259      0      0     52     0     0   200    0.00   0.0   0.0   0.00   0.259   0.194   0.187   0.167   0.295   0.300   0.291   0.293   0.296   0.297
 1984 201    37   558   259      0      0     57     0     0   200    0.00   0.0   0.0   0.00   0.270   0.216   0.185   0.162   0.294   0.299   0.291   0.293   0.295   0.296
 1984 202    38   553   255      0      0     57     0     0   200    0.00   0.0   0.0   0.00   0.236   0.204   0.183   0.160   0.293   0.298   0.290   0.292   0.295   0.296
 1984 203    39   570   272      2      0     78     0     0   200    0.00   0.0   0.0   1.64   0.311   0.290   0.271   0.164   0.292   0.297   0.289   0.291   0.294   0.296
 1984 204    40   575   277      2      0     89     0     0   200    0.00   0.0   0.0   0.25   0.320   0.289   0.307   0.194   0.291   0.296   0.289   0.291   0.294   0.295
 1984 205    41   582   284      3      0    102     0     0   200    0.00   0.0   0.0   0.50   0.321   0.296   0.315   0.237   0.289   0.295   0.288   0.290   0.293   0.295
 1984 206    42   578   280      3      0    102     0     0   200    0.00   0.0   0.0   0.00   0.270   0.259   0.270   0.260   0.299   0.295   0.287   0.290   0.293   0.294
 1984 207    43   584   286      3      0    112     0     0   200    0.00   0.0   0.0   0.08   0.324   0.272   0.285   0.266   0.307   0.294   0.287   0.289   0.292   0.294
 1984 208    44   587   289      3      0    120     0     0   200    0.00   0.0   0.0   0.00   0.324   0.274   0.294   0.270   0.318   0.297   0.286   0.289   0.292   0.293
 1984 209    45   587   289      3      0    126     0     0   200    0.00   0.0   0.0   0.00   0.321   0.267   0.290   0.270   0.322   0.308   0.285   0.288   0.291   0.293
 1984 210    46   583   285      3      0    126     0     0   200    0.00   0.0   0.0   0.00   0.269   0.246   0.258   0.262   0.318   0.315   0.303   0.288   0.291   0.293
 1984 211    47   589   291      3      0    137     0     0   200    0.00   0.0   0.0   0.08   0.324   0.268   0.275   0.264   0.319   0.317   0.305   0.288   0.290   0.292
 1984 212    48   597   299      3      0    149     0     0   200    0.00   0.0   0.0   0.43   0.325   0.292   0.310   0.272   0.324   0.321   0.307   0.293   0.290   0.292
 1984 213    49   599   301      3      0    155     0     0   200    0.00   0.0   0.0   0.00   0.324   0.278   0.308   0.275   0.328   0.325   0.310   0.303   0.290   0.292
 1984 214    50   594   296      3      0    155     0     0   200    0.00   0.0   0.0   0.00   0.271   0.251   0.266   0.264   0.320   0.319   0.306   0.304   0.305   0.305
 1984 215    51   590   292      3      0    155     0     0   200    0.00   0.0   0.0   0.00   0.249   0.239   0.249   0.259   0.317   0.318   0.305   0.304   0.305   0.305
 1984 216    52   601   302      4      0    172     0     0   200    0.00   0.0   0.0   0.71   0.321   0.278   0.284   0.264   0.319   0.319   0.306   0.305   0.306   0.304
 1984 217    53   610   312      5      0    187     0     0   200    0.00   0.0   0.0   1.06   0.323   0.304   0.316   0.277   0.327   0.324   0.309   0.307   0.307   0.307
 1984 218    54   618   320      6      0    200     0     0   200    0.00   0.0   0.0   0.60   0.324   0.307   0.316   0.288   0.336   0.331   0.314   0.311   0.309   0.308
 1984 219    55   620   322      6      0    207     0     0   200    0.00   0.0   0.0   0.02   0.324   0.288   0.316   0.284   0.338   0.335   0.319   0.316   0.312   0.310
 1984 220    56   622   324      6      0    214     0     0   200    0.00   0.0   0.0   0.00   0.320   0.277   0.309   0.279   0.336   0.336   0.321   0.319   0.314   0.312
 1984 221    57   604   306      6     13    214     0     0   200    0.00   0.0   0.0   0.00   0.267   0.251   0.265   0.265   0.323   0.323   0.310   0.309   0.308   0.308
 1984 222    58   596   298      6     16    214     0     0   200    0.00   0.0   0.0   0.00   0.245   0.236   0.247   0.259   0.318   0.318   0.306   0.306   0.306   0.307
 1984 223    59   590   292      6     16    214     0     0   200    0.00   0.0   0.0   0.00   0.226   0.218   0.230   0.253   0.316   0.317   0.305   0.305   0.305   0.307
 1984 224    60   585   287      6     16    214     0     0   200    0.00   0.0   0.0   0.00   0.206   0.206   0.208   0.245   0.315   0.316   0.305   0.304   0.305   0.306
 1984 225    61   584   286      6     16    218     0     0   200    0.00   0.0   0.0   0.00   0.262   0.205   0.200   0.232   0.313   0.315   0.304   0.304   0.304   0.306
 1984 226    62   595   297      6     16    233     0     0   200    0.00   0.0   0.0   0.47   0.309   0.277   0.260   0.224   0.312   0.314   0.303   0.303   0.304   0.305
 1984 227    63   590   292      6     16    233     0     0   200    0.00   0.0   0.0   0.00   0.264   0.253   0.247   0.235   0.311   0.314   0.303   0.303   0.304   0.305
 1984 228    64   594   296      6     16    241     0     0   200    0.00   0.0   0.0   0.00   0.317   0.260   0.258   0.236   0.310   0.313   0.302   0.303   0.303   0.305
 1984 229    65   589   291      6     16    241     0     0   200    0.00   0.0   0.0   0.00   0.266   0.245   0.246   0.242   0.308   0.312   0.302   0.302   0.303   0.304
 1984 230    66   584   286      6     16    241     0     0   200    0.00   0.0   0.0   0.00   0.246   0.232   0.231   0.236   0.307   0.311   0.301   0.301   0.302   0.304
 1984 231    67   581   283      6     16    241     0     0   200    0.00   0.0   0.0   0.00   0.219   0.221   0.221   0.232   0.307   0.311   0.301   0.301   0.302   0.304
 1984 232    68   576   278      6     16    241     0     0   200    0.00   0.0   0.0   0.00   0.194   0.208   0.209   0.224   0.306   0.311   0.301   0.301   0.302   0.304
 1984 233    69   572   274      6     16    241     0     0   200    0.00   0.0   0.0   0.00   0.179   0.200   0.201   0.211   0.305   0.310   0.301   0.301   0.302   0.304
 1984 234    70   567   269      6     16    241     0     0   200    0.00   0.0   0.0   0.00   0.166   0.194   0.195   0.193   0.304   0.310   0.301   0.301   0.302   0.304
 1984 235    71   563   265      6     16    241     0     0   200    0.00   0.0   0.0   0.00   0.156   0.190   0.192   0.175   0.302   0.309   0.301   0.301   0.302   0.304
 1984 236    72   559   261      6     16    241     0     0   200    0.00   0.0   0.0   0.00   0.146   0.187   0.189   0.158   0.300   0.308   0.301   0.301   0.302   0.304
 1984 237    73   555   257      6     16    241     0     0   200    0.00   0.0   0.0   0.00   0.137   0.182   0.183   0.147   0.295   0.305   0.301   0.301   0.302   0.304
 1984 238    74   552   254      6     16    241     0     0   200    0.00   0.0   0.0   0.00   0.129   0.178   0.179   0.143   0.289   0.302   0.301   0.301   0.302   0.304
 1984 239    75   549   251      6     16    241     0     0   200    0.00   0.0   0.0   0.00   0.122   0.175   0.176   0.139   0.283   0.299   0.301   0.301   0.302   0.304
 1984 240    76   556   258      6     16    250     0     0   200    0.00   0.0   0.0   0.00   0.266   0.184   0.174   0.137   0.277   0.295   0.301   0.301   0.302   0.304
 1984 241    77   560   262      6     16    259     0     0   200    0.00   0.0   0.0   0.00   0.288   0.236   0.172   0.136   0.274   0.293   0.300   0.301   0.302   0.303
 1984 242    78   556   257      6     16    259     0     0   200    0.00   0.0   0.0   0.00   0.246   0.223   0.171   0.135   0.272   0.291   0.299   0.300   0.301   0.303
 1984 243    79   552   254      6     16    259     0     0   200    0.00   0.0   0.0   0.00   0.209   0.208   0.171   0.135   0.271   0.291   0.299   0.300   0.301   0.303
 1984 244    80   548   250      6     16    259     0     0   200    0.00   0.0   0.0   0.00   0.180   0.193   0.170   0.134   0.267   0.288   0.299   0.300   0.301   0.303
 1984 245    81   544   246      6     16    259     0     0   200    0.00   0.0   0.0   0.00   0.166   0.184   0.168   0.132   0.260   0.284   0.299   0.300   0.301   0.303
 1984 246    82   543   245      6     16    262     0     0   200    0.00   0.0   0.0   0.00   0.209   0.180   0.167   0.131   0.252   0.279   0.299   0.300   0.301   0.303
 1984 247    83   544   246      6     16    267     0     0   200    0.00   0.0   0.0   0.00   0.238   0.188   0.166   0.130   0.245   0.274   0.299   0.300   0.301   0.303
 1984 248    84   544   246      6     16    271     0     0   200    0.00   0.0   0.0   0.00   0.245   0.203   0.165   0.129   0.241   0.272   0.299   0.299   0.300   0.302
 1984 249    85   543   245      6     16    276     0     0   200    0.00   0.0   0.0   0.00   0.248   0.215   0.164   0.128   0.238   0.269   0.298   0.299   0.300   0.302
 1984 250    86   546   248      6     16    283     0     0   200    0.00   0.0   0.0   0.00   0.290   0.240   0.163   0.127   0.235   0.267   0.297   0.298   0.299   0.301
 1984 251    87   550   252      6     16    292     0     0   200    0.00   0.0   0.0   0.00   0.314   0.257   0.213   0.127   0.233   0.265   0.296   0.297   0.299   0.301
 1984 252    88   552   254      6     16    297     0     0   200    0.00   0.0   0.0   0.00   0.315   0.260   0.256   0.127   0.231   0.263   0.296   0.297   0.298   0.300
 1984 253    89   550   252      6     16    301     0     0   200    0.00   0.0   0.0   0.00   0.292   0.256   0.258   0.133   0.228   0.262   0.295   0.296   0.298   0.300
 1984 254    90   544   246      6     16    301     0     0   200    0.00   0.0   0.0   0.00   0.249   0.242   0.243   0.135   0.226   0.260   0.294   0.295   0.297   0.299
 1984 255    91   541   242      6     16    301     0     0   200    0.00   0.0   0.0   0.00   0.219   0.229   0.230   0.135   0.225   0.259   0.294   0.295   0.297   0.299
 1984 256    92   548   250      6     16    312     0     0   200    0.00   0.0   0.0   0.00   0.329   0.256   0.242   0.134   0.223   0.258   0.293   0.295   0.297   0.299
 1984 257    93   543   245      6     16    312     0     0   200    0.00   0.0   0.0   0.00   0.265   0.243   0.244   0.139   0.221   0.256   0.292   0.294   0.296   0.298
 1984 258    94   538   240      6     16    312     0     0   200    0.00   0.0   0.0   0.00   0.240   0.229   0.229   0.138   0.219   0.254   0.291   0.293   0.295   0.298
 1984 259    95   534   236      6     16    312     0     0   200    0.00   0.0   0.0   0.00   0.210   0.215   0.216   0.137   0.217   0.253   0.291   0.293   0.295   0.298
 1984 260    96   536   238      6     16    317     0     0   200    0.00   0.0   0.0   0.00   0.266   0.223   0.206   0.137   0.214   0.251   0.291   0.293   0.295   0.298
 1984 261    97   531   233      6     16    317     0     0   200    0.00   0.0   0.0   0.00   0.233   0.209   0.200   0.135   0.211   0.248   0.290   0.292   0.294   0.297
 1984 262    98   527   229      6     16    317     0     0   200    0.00   0.0   0.0   0.00   0.191   0.202   0.197   0.135   0.208   0.246   0.290   0.292   0.294   0.297
 1984 263    99   524   225      6     16    317     0     0   200    0.00   0.0   0.0   0.00   0.176   0.195   0.193   0.134   0.202   0.241   0.290   0.292   0.294   0.297
 1984 264   100   520   222      6     16    317     0     0   200    0.00   0.0   0.0   0.00   0.164   0.190   0.189   0.133   0.196   0.237   0.290   0.292   0.294   0.297
 1984 265   101   528   230      6     16    329     0     0   200    0.00   0.0   0.0   0.00   0.302   0.221   0.186   0.132   0.189   0.231   0.290   0.292   0.294   0.297
 1984 266   102   524   226      6     16    329     0     0   200    0.00   0.0   0.0   0.00   0.254   0.223   0.184   0.131   0.187   0.229   0.289   0.291   0.293   0.296
 1984 267   103   521   223      6     16    329     0     0   200    0.00   0.0   0.0   0.00   0.221   0.212   0.183   0.130   0.185   0.228   0.289   0.291   0.293   0.296
 1984 268   104   518   219      6     16    329     0     0   200    0.00   0.0   0.0   0.00   0.191   0.204   0.182   0.130   0.181   0.225   0.289   0.291   0.293   0.296
 1984 269   105   514   216      6     16    329     0     0   200    0.00   0.0   0.0   0.00   0.176   0.196   0.181   0.129   0.176   0.221   0.289   0.291   0.293   0.296
 1984 270   106   512   213      6     16    329     0     0   200    0.00   0.0   0.0   0.00   0.164   0.192   0.179   0.129   0.171   0.216   0.289   0.291   0.293   0.296
 1984 271   107   509   211      6     16    329     0     0   200    0.00   0.0   0.0   0.00   0.154   0.187   0.178   0.128   0.166   0.209   0.289   0.291   0.293   0.296
 1984 272   108   506   208      6     16    329     0     0   200    0.00   0.0   0.0   0.00   0.144   0.183   0.176   0.127   0.163   0.201   0.289   0.291   0.293   0.296

*DSSAT Cropping System Model Ver. 4.7.5.008 -release  JAN 07, 2021 20:33:24

*RUN   5        : ERiMA DCC1                MZCER047 ETMZmelk    1
 MODEL          : MZCER047 - Maize
 EXPERIMENT     : ETMZmelk SN MELKSSAL
 DATA PATH      : C:\IRI\Python_Dash\ET_DSS_hist\TEST\
 TREATMENT  1   : ERiMA DCC1                MZCER047
  
!                                                                                                 Soil water content (mm3/mm3) by soil depth (cm):
!                                                                                                 0-5    5-15   15-20   20-35   35-50   50-65   65-81   81-97  97-118 118-200
@YEAR DOY   DAS  SWTD  SWXD   ROFC   DRNC   PREC  IR#C  IRRC  DTWT    MWTD  TDFD  TDFC   ROFD    SW1D    SW2D    SW3D    SW4D    SW5D    SW6D    SW7D    SW8D    SW9D    SW10
 1985 164     0   586   288      0      0      0     0     0     0    0.00   0.0   0.0   0.00   0.231   0.231   0.231   0.221   0.316   0.316   0.304   0.304   0.305   0.305
 1985 165     1   587   289      0      0      7     0     0   100    0.00   0.0   0.0   0.00   0.289   0.254   0.226   0.217   0.312   0.313   0.301   0.302   0.303   0.303
 1985 166     2   581   283      0      0      7     0     0   200    0.00   0.0   0.0   0.00   0.249   0.252   0.226   0.214   0.308   0.310   0.299   0.300   0.301   0.302
 1985 167     3   580   282      0      0      7     0     0   200    0.00   0.0   0.0   0.00   0.231   0.251   0.226   0.214   0.308   0.310   0.299   0.300   0.301   0.302
[...]
 2015 192    28   612   314     10     34    190     0     0   200    0.00   0.0   0.0   0.00   0.317   0.277   0.290   0.272   0.325   0.324   0.310   0.309   0.308   0.307
 2015 193    29   621   323     11     35    204     0     0   200    0.00   0.0   0.0   0.73   0.326   0.307   0.322   0.281   0.330   0.328   0.313   0.311   0.309   0.308
 2015 194    30   624   326     11     35    211     0     0   200    0.00   0.0   0.0   0.01   0.328   0.297   0.323   0.284   0.335   0.332   0.316   0.314   0.311   0.309
 2015 195    31   607   308     11     50    211     0     0   200    0.00   0.0   0.0   0.00   0.277   0.268   0.279   0.269   0.322   0.321   0.308   0.307   0.307   0.306
 2015 196    32   610   312     11     51    218     0     0   200    0.00   0.0   0.0   0.00   0.321   0.274   0.286   0.269   0.323   0.322   0.309   0.308   0.307   0.307
 2015 197    33   615   317     11     51    226     0     0   200    0.00   0.0   0.0   0.02   0.331   0.288   0.305   0.273   0.325   0.324   0.310   0.309   0.308   0.307
 2015 198    34   625   327     12     52    242     0     0   200    0.00   0.0   0.0   1.36   0.327   0.320   0.321   0.287   0.335   0.330   0.314   0.312   0.310   0.309
 2015 199    35   640   342     17     54    266     0     0   199    0.00   0.0   0.0   4.39   0.326   0.320   0.319   0.315   0.356   0.346   0.325   0.320   0.314   0.311
 2015 200    36   641   343     17     56    274     0     0   199    0.00   0.0   0.0   0.09   0.326   0.303   0.319   0.297   0.355   0.351   0.332   0.327   0.319   0.315
 2015 201    37   612   314     17     82    274     0     0   200    0.00   0.0   0.0   0.00   0.276   0.269   0.275   0.271   0.330   0.329   0.315   0.313   0.310   0.309
 2015 202    38   619   321     17     83    287     0     0   199    0.00   0.0   0.0   0.32   0.327   0.291   0.305   0.270   0.327   0.329   0.315   0.314   0.312   0.310
 2015 203    39   604   306     17     94    287     0     0   199    0.00   0.0   0.0   0.00   0.277   0.265   0.270   0.260   0.317   0.321   0.308   0.308   0.307   0.307
 2015 204    40   599   301     17     96    287     0     0   200    0.00   0.0   0.0   0.00   0.258   0.255   0.257   0.259   0.314   0.317   0.305   0.305   0.307   0.306
 2015 205    41   607   309     17     97    299     0     0   200    0.00   0.0   0.0   0.22   0.330   0.285   0.289   0.263   0.314   0.317   0.305   0.305   0.306   0.306
 2015 206    42   616   318     18     97    312     0     0   200    0.00   0.0   0.0   0.60   0.330   0.309   0.321   0.275   0.320   0.322   0.308   0.306   0.306   0.306
 2015 207    43   619   321     18     98    321     0     0   200    0.00   0.0   0.0   0.11   0.330   0.303   0.321   0.282   0.326   0.327   0.312   0.309   0.308   0.307
 2015 208    44   631   333     20     99    337     0     0   199    0.00   0.0   0.0   1.65   0.333   0.324   0.323   0.298   0.338   0.336   0.318   0.315   0.311   0.309
 2015 209    45   634   336     20    100    346     0     0   199    0.00   0.0   0.0   0.15   0.331   0.310   0.322   0.294   0.340   0.342   0.324   0.320   0.315   0.312
 2015 210    46   610   312     20    121    346     0     0   200    0.00   0.0   0.0   0.00   0.283   0.276   0.280   0.273   0.321   0.326   0.312   0.310   0.309   0.308
 2015 211    47   614   316     20    122    354     0     0   200    0.00   0.0   0.0   0.01   0.332   0.282   0.296   0.271   0.319   0.325   0.312   0.311   0.310   0.309
 2015 212    48   618   320     20    123    362     0     0   199    0.00   0.0   0.0   0.06   0.331   0.294   0.316   0.275   0.320   0.325   0.313   0.312   0.310   0.310
 2015 213    49   603   305     20    134    362     0     0   199    0.00   0.0   0.0   0.00   0.277   0.267   0.275   0.263   0.311   0.319   0.307   0.307   0.307   0.307
 2015 214    50   600   302     20    135    362     0     0   199    0.00   0.0   0.0   0.00   0.259   0.258   0.261   0.260   0.311   0.317   0.305   0.307   0.307   0.306
 2015 215    51   596   298     20    135    362     0     0   200    0.00   0.0   0.0   0.00   0.249   0.251   0.254   0.256   0.305   0.316   0.305   0.307   0.307   0.306
 2015 216    52   608   310     21    135    378     0     0   200    0.00   0.0   0.0   0.58   0.328   0.291   0.297   0.264   0.307   0.315   0.305   0.306   0.306   0.306
 2015 217    53   618   320     22    136    393     0     0   200    0.00   0.0   0.0   1.23   0.329   0.321   0.323   0.282   0.320   0.321   0.307   0.307   0.307   0.306
 2015 218    54   605   307     22    146    393     0     0   200    0.00   0.0   0.0   0.00   0.280   0.279   0.280   0.268   0.313   0.317   0.305   0.307   0.307   0.306
 2015 219    55   613   315     22    147    406     0     0   200    0.00   0.0   0.0   0.31   0.328   0.297   0.314   0.273   0.317   0.320   0.307   0.307   0.307   0.307
 2015 220    56   602   304     22    154    406     0     0   200    0.00   0.0   0.0   0.00   0.276   0.268   0.275   0.263   0.311   0.316   0.307   0.307   0.307   0.306
 2015 221    57   598   300     22    154    406     0     0   200    0.00   0.0   0.0   0.00   0.256   0.256   0.259   0.259   0.310   0.314   0.307   0.306   0.307   0.306
 2015 222    58   617   319     25    154    430     0     0   200    0.00   0.0   0.0   3.23   0.332   0.322   0.324   0.276   0.319   0.318   0.307   0.307   0.307   0.307
 2015 223    59   622   324     26    155    440     0     0   200    0.00   0.0   0.0   0.33   0.329   0.315   0.323   0.289   0.329   0.326   0.312   0.310   0.308   0.307
 2015 224    60   634   336     28    156    460     0     0   199    0.00   0.0   0.0   2.78   0.327   0.321   0.322   0.309   0.345   0.338   0.321   0.316   0.312   0.310
 2015 225    61   609   311     28    177    460     0     0   199    0.00   0.0   0.0   0.00   0.274   0.276   0.276   0.276   0.321   0.321   0.311   0.309   0.308   0.307
 2015 226    62   601   303     28    182    460     0     0   199    0.00   0.0   0.0   0.00   0.258   0.261   0.261   0.265   0.314   0.316   0.306   0.306   0.307   0.307
 2015 227    63   599   300     28    182    460     0     0   199    0.00   0.0   0.0   0.00   0.250   0.256   0.256   0.262   0.310   0.313   0.306   0.306   0.307   0.307
 2015 228    64   600   302     28    182    465     0     0   200    0.00   0.0   0.0   0.00   0.287   0.261   0.261   0.261   0.306   0.310   0.306   0.305   0.307   0.306
 2015 229    65   597   299     28    182    465     0     0   200    0.00   0.0   0.0   0.00   0.263   0.256   0.256   0.261   0.305   0.308   0.306   0.305   0.307   0.306
 2015 230    66   598   300     28    182    469     0     0   200    0.00   0.0   0.0   0.00   0.291   0.261   0.261   0.260   0.301   0.304   0.306   0.305   0.307   0.306
 2015 231    67   600   302     28    182    473     0     0   200    0.00   0.0   0.0   0.00   0.309   0.269   0.272   0.263   0.300   0.302   0.306   0.305   0.307   0.306
 2015 232    68   610   311     29    182    487     0     0   200    0.00   0.0   0.0   0.52   0.330   0.302   0.317   0.272   0.315   0.299   0.305   0.305   0.307   0.306
 2015 233    69   615   316     29    182    494     0     0   200    0.00   0.0   0.0   0.04   0.332   0.300   0.324   0.280   0.324   0.314   0.305   0.305   0.307   0.306
 2015 234    70   619   321     29    182    502     0     0   200    0.00   0.0   0.0   0.04   0.332   0.300   0.324   0.285   0.331   0.323   0.310   0.308   0.307   0.307
 2015 235    71   622   324     29    183    509     0     0   200    0.00   0.0   0.0   0.04   0.330   0.298   0.323   0.285   0.333   0.328   0.315   0.312   0.309   0.308
 2015 236    72   607   309     29    197    509     0     0   200    0.00   0.0   0.0   0.00   0.284   0.272   0.282   0.271   0.321   0.319   0.308   0.307   0.307   0.306
 2015 237    73   600   302     29    201    509     0     0   200    0.00   0.0   0.0   0.00   0.263   0.260   0.264   0.263   0.315   0.315   0.306   0.305   0.307   0.306
 2015 238    74   604   306     29    201    515     0     0   200    0.00   0.0   0.0   0.00   0.310   0.269   0.273   0.264   0.315   0.315   0.305   0.305   0.306   0.306
 2015 239    75   607   308     29    201    521     0     0   200    0.00   0.0   0.0   0.00   0.328   0.275   0.285   0.266   0.315   0.314   0.305   0.305   0.306   0.308
 2015 240    76   599   301     29    204    521     0     0   200    0.00   0.0   0.0   0.00   0.276   0.258   0.262   0.261   0.312   0.312   0.305   0.305   0.306   0.307
 2015 241    77   597   299     29    204    521     0     0   200    0.00   0.0   0.0   0.00   0.259   0.255   0.257   0.260   0.309   0.310   0.305   0.305   0.306   0.307
 2015 242    78   601   303     29    204    527     0     0   200    0.00   0.0   0.0   0.00   0.309   0.267   0.268   0.263   0.307   0.308   0.305   0.305   0.306   0.307
 2015 243    79   603   305     29    204    533     0     0   200    0.00   0.0   0.0   0.00   0.327   0.274   0.282   0.265   0.311   0.305   0.304   0.304   0.305   0.307
 2015 244    80   604   306     29    204    538     0     0   200    0.00   0.0   0.0   0.00   0.326   0.275   0.289   0.266   0.314   0.304   0.304   0.304   0.305   0.307
 2015 245    81   604   306     29    204    544     0     0   200    0.00   0.0   0.0   0.00   0.323   0.274   0.291   0.266   0.315   0.306   0.304   0.304   0.305   0.307
 2015 246    82   605   307     29    204    549     0     0   200    0.00   0.0   0.0   0.00   0.325   0.275   0.292   0.268   0.316   0.310   0.303   0.303   0.305   0.306
 2015 247    83   605   307     29    204    554     0     0   200    0.00   0.0   0.0   0.00   0.324   0.275   0.293   0.268   0.317   0.314   0.303   0.303   0.304   0.306
 2015 248    84   598   300     29    208    554     0     0   200    0.00   0.0   0.0   0.00   0.275   0.258   0.266   0.261   0.313   0.313   0.304   0.304   0.305   0.306
 2015 249    85   595   296     29    208    554     0     0   200    0.00   0.0   0.0   0.00   0.256   0.253   0.256   0.260   0.310   0.310   0.303   0.303   0.305   0.306
 2015 250    86   597   299     29    208    562     0     0   200    0.00   0.0   0.0   0.00   0.317   0.263   0.265   0.259   0.306   0.305   0.303   0.303   0.304   0.305
 2015 251    87   600   302     29    208    571     0     0   200    0.00   0.0   0.0   0.01   0.324   0.279   0.287   0.263   0.309   0.301   0.303   0.303   0.304   0.305
 2015 252    88   596   298     29    208    571     0     0   200    0.00   0.0   0.0   0.00   0.273   0.259   0.263   0.259   0.312   0.312   0.304   0.303   0.304   0.305
 2015 253    89   600   302     29    208    579     0     0   200    0.00   0.0   0.0   0.00   0.328   0.271   0.276   0.262   0.312   0.309   0.303   0.303   0.303   0.305
 2015 254    90   602   304     29    208    585     0     0   200    0.00   0.0   0.0   0.00   0.325   0.279   0.291   0.265   0.314   0.309   0.303   0.303   0.303   0.304
 2015 255    91   611   313     30    208    599     0     0   200    0.00   0.0   0.0   0.70   0.328   0.308   0.321   0.277   0.322   0.316   0.305   0.304   0.303   0.304
 2015 256    92   613   315     30    208    606     0     0   200    0.00   0.0   0.0   0.01   0.326   0.294   0.320   0.280   0.327   0.322   0.309   0.307   0.307   0.304
 2015 257    93   615   317     30    208    612     0     0   200    0.00   0.0   0.0   0.00   0.326   0.287   0.319   0.278   0.328   0.324   0.313   0.310   0.308   0.306
 2015 258    94   602   304     30    217    612     0     0   200    0.00   0.0   0.0   0.00   0.276   0.263   0.276   0.265   0.318   0.316   0.307   0.306   0.306   0.306
 2015 259    95   598   299     30    219    612     0     0   200    0.00   0.0   0.0   0.00   0.258   0.256   0.260   0.260   0.315   0.314   0.305   0.306   0.306   0.306
 2015 260    96   600   302     30    219    619     0     0   200    0.00   0.0   0.0   0.00   0.309   0.264   0.267   0.260   0.314   0.311   0.305   0.306   0.306   0.306
 2015 261    97   595   297     30    219    619     0     0   200    0.00   0.0   0.0   0.00   0.265   0.250   0.252   0.257   0.311   0.312   0.304   0.305   0.305   0.305
 2015 262    98   604   305     30    219    632     0     0   200    0.00   0.0   0.0   0.24   0.328   0.283   0.287   0.262   0.314   0.309   0.304   0.305   0.305   0.305
 2015 263    99   605   307     30    219    638     0     0   200    0.00   0.0   0.0   0.00   0.326   0.283   0.301   0.267   0.317   0.312   0.303   0.304   0.305   0.305
 2015 264   100   598   300     30    222    638     0     0   200    0.00   0.0   0.0   0.00   0.276   0.261   0.269   0.261   0.313   0.313   0.304   0.304   0.305   0.305
 2015 265   101   594   296     30    222    638     0     0   200    0.00   0.0   0.0   0.00   0.256   0.253   0.256   0.258   0.312   0.310   0.303   0.304   0.304   0.304
 2015 266   102   589   291     30    222    638     0     0   200    0.00   0.0   0.0   0.00   0.229   0.243   0.247   0.251   0.309   0.307   0.303   0.304   0.304   0.304
 2015 267   103   596   298     30    222    651     0     0   200    0.00   0.0   0.0   0.10   0.323   0.268   0.268   0.252   0.303   0.302   0.303   0.303   0.304   0.304
 2015 268   104   598   300     30    222    657     0     0   200    0.00   0.0   0.0   0.00   0.329   0.278   0.286   0.260   0.303   0.299   0.302   0.303   0.304   0.304
 2015 269   105   595   297     30    222    657     0     0   200    0.00   0.0   0.0   0.00   0.279   0.261   0.265   0.259   0.313   0.306   0.302   0.302   0.303   0.304
 2015 270   106   592   294     30    222    657     0     0   200    0.00   0.0   0.0   0.00   0.259   0.254   0.256   0.259   0.311   0.303   0.301   0.302   0.303   0.303
 2015 271   107   597   298     30    222    666     0     0   200    0.00   0.0   0.0   0.00   0.328   0.269   0.272   0.259   0.310   0.300   0.301   0.302   0.303   0.303
 2015 272   108   606   308     31    222    679     0     0   200    0.00   0.0   0.0   0.67   0.330   0.306   0.322   0.270   0.318   0.304   0.301   0.301   0.302   0.303
 2015 273   109   614   316     32    222    693     0     0   200    0.00   0.0   0.0   0.86   0.327   0.318   0.321   0.285   0.330   0.318   0.305   0.304   0.302   0.302
 2015 274   110   602   304     32    230    693     0     0   200    0.00   0.0   0.0   0.00   0.276   0.275   0.276   0.265   0.318   0.315   0.305   0.304   0.305   0.305
 2015 275   111   595   297     32    231    693     0     0   200    0.00   0.0   0.0   0.00   0.252   0.255   0.257   0.257   0.313   0.312   0.304   0.303   0.305   0.305
 2015 276   112   589   291     32    231    693     0     0   200    0.00   0.0   0.0   0.00   0.238   0.245   0.247   0.247   0.309   0.308   0.304   0.303   0.304   0.304
 2015 277   113   584   286     32    231    693     0     0   200    0.00   0.0   0.0   0.00   0.213   0.235   0.238   0.239   0.305   0.304   0.304   0.303   0.304   0.304
 2015 278   114   583   285     32    231    696     0     0   200    0.00   0.0   0.0   0.00   0.251   0.233   0.230   0.232   0.302   0.301   0.304   0.303   0.304   0.304
 2015 279   115   589   290     32    231    706     0     0   200    0.00   0.0   0.0   0.00   0.327   0.262   0.253   0.224   0.298   0.298   0.303   0.302   0.304   0.304
 2015 280   116   584   286     32    231    706     0     0   200    0.00   0.0   0.0   0.00   0.275   0.254   0.252   0.228   0.294   0.294   0.302   0.302   0.303   0.303
 2015 281   117   579   281     32    231    706     0     0   200    0.00   0.0   0.0   0.00   0.253   0.249   0.243   0.220   0.290   0.290   0.302   0.301   0.303   0.303
 2015 282   118   574   276     32    231    706     0     0   200    0.00   0.0   0.0   0.00   0.227   0.240   0.235   0.212   0.287   0.287   0.302   0.301   0.303   0.303
 2015 283   119   570   272     32    231    706     0     0   200    0.00   0.0   0.0   0.00   0.205   0.232   0.228   0.205   0.284   0.284   0.302   0.301   0.303   0.303
 2015 284   120   570   272     32    231    710     0     0   200    0.00   0.0   0.0   0.00   0.251   0.230   0.222   0.199   0.281   0.282   0.302   0.301   0.303   0.303
 2015 285   121   566   268     32    231    710     0     0   200    0.00   0.0   0.0   0.00   0.225   0.222   0.218   0.192   0.278   0.278   0.302   0.301   0.303   0.303
 2015 286   122   562   263     32    231    710     0     0   200    0.00   0.0   0.0   0.00   0.203   0.216   0.214   0.184   0.274   0.275   0.302   0.301   0.303   0.303
 2015 287   123   557   259     32    231    710     0     0   200    0.00   0.0   0.0   0.00   0.187   0.211   0.210   0.173   0.269   0.270   0.302   0.301   0.303   0.303
 2015 288   124   552   254     32    231    710     0     0   200    0.00   0.0   0.0   0.00   0.174   0.207   0.206   0.162   0.264   0.265   0.301   0.301   0.303   0.303
 2015 289   125   549   251     32    231    710     0     0   200    0.00   0.0   0.0   0.00   0.163   0.203   0.203   0.158   0.257   0.258   0.301   0.301   0.303   0.303
 2015 290   126   545   247     32    231    710     0     0   200    0.00   0.0   0.0   0.00   0.153   0.200   0.201   0.154   0.250   0.251   0.301   0.301   0.303   0.303
 2015 291   127   542   244     32    231    710     0     0   200    0.00   0.0   0.0   0.00   0.143   0.197   0.199   0.152   0.243   0.244   0.301   0.301   0.302   0.303
 2015 292   128   544   246     32    231    716     0     0   200    0.00   0.0   0.0   0.00   0.240   0.195   0.197   0.150   0.236   0.237   0.301   0.301   0.302   0.303
 2015 293   129   539   241     32    231    716     0     0   200    0.00   0.0   0.0   0.00   0.206   0.193   0.195   0.148   0.228   0.230   0.301   0.301   0.302   0.303
 2015 294   130   535   237     32    231    716     0     0   200    0.00   0.0   0.0   0.00   0.188   0.191   0.193   0.146   0.219   0.221   0.301   0.301   0.302   0.303
 2015 295   131   532   234     32    231    716     0     0   200    0.00   0.0   0.0   0.00   0.175   0.189   0.192   0.145   0.211   0.213   0.301   0.301   0.302   0.303
 2015 296   132   528   230     32    231    716     0     0   200    0.00   0.0   0.0   0.00   0.164   0.187   0.191   0.144   0.204   0.206   0.301   0.301   0.302   0.303
 2015 297   133   525   227     32    231    716     0     0   200    0.00   0.0   0.0   0.00   0.153   0.186   0.189   0.143   0.196   0.198   0.301   0.301   0.302   0.303
 2015 298   134   521   223     32    231    716     0     0   200    0.00   0.0   0.0   0.00   0.144   0.184   0.188   0.141   0.186   0.188   0.301   0.301   0.302   0.303
 2015 299   135   518   219     32    231    716     0     0   200    0.00   0.0   0.0   0.00   0.135   0.183   0.187   0.140   0.176   0.179   0.301   0.301   0.302   0.303
 2015 300   136   514   216     32    231    716     0     0   200    0.00   0.0   0.0   0.00   0.127   0.182   0.186   0.139   0.167   0.170   0.301   0.301   0.302   0.303
 2015 301   137   520   222     32    231    725     0     0   200    0.00   0.0   0.0   0.00   0.275   0.197   0.184   0.138   0.159   0.160   0.301   0.301   0.302   0.303
 2015 302   138   520   222     32    231    730     0     0   200    0.00   0.0   0.0   0.00   0.269   0.222   0.182   0.136   0.155   0.156   0.300   0.300   0.302   0.302
 2015 303   139   515   216     32    231    730     0     0   200    0.00   0.0   0.0   0.00   0.232   0.208   0.180   0.134   0.153   0.154   0.299   0.299   0.301   0.301
 2015 304   140   511   213     32    231    730     0     0   200    0.00   0.0   0.0   0.00   0.188   0.201   0.179   0.133   0.151   0.152   0.299   0.299   0.301   0.301
 2015 305   141   516   218     32    231    739     0     0   200    0.00   0.0   0.0   0.00   0.285   0.217   0.177   0.131   0.148   0.148   0.299   0.299   0.301   0.301
