*SOIL INORGANIC N BALANCE

*DSSAT Cropping System Model Ver. 4.7.5.008 -release  JAN 07, 2021 20:33:24

*RUN   1        : ERiMA DCC1                MZCER047 ETMZmelk    1
 MODEL          : MZCER047 - Maize
 EXPERIMENT     : ETMZmelk SN MELKSSAL
 DATA PATH      : C:\IRI\Python_Dash\ET_DSS_hist\TEST\
 TREATMENT  1   : ERiMA DCC1                MZCER047
  


!SOIL INORGANIC N BALANCE                         Initial               Final
!                                                Year/Doy            Year/Doy
!                                                1981/165            1981/272
!                                               (kg[N]/ha)          (kg[N]/ha)
! Soil N state variables:
!   Soil NO3                                        39.60               79.43
!   Soil NH4                                         2.43                2.11
!   Soil Urea                                        0.00                0.00
!   Soil N gases                                     0.00                0.15

! N additions:
!   Fertilizer N                                    60.00
!   Mineralized N                                  104.51

! N subtractions:
!   N immobilized                                                        0.00
!   N leached                                                            4.05
!   N loss to tile drainage                                              0.00
!   N Uptake From Soil                                                 119.40
!   NH3 loss                                                             0.00
!   N2O loss                                                             0.21
!   N2 loss                                                              0.57
!   NO loss                                                              0.61

!   Total N balance                                206.54              206.54
!   Balance                                                            -0.000

!===============================================================================

*DSSAT Cropping System Model Ver. 4.7.5.008 -release  JAN 07, 2021 20:33:24

*RUN   2        : ERiMA DCC1                MZCER047 ETMZmelk    1
 MODEL          : MZCER047 - Maize
 EXPERIMENT     : ETMZmelk SN MELKSSAL
 DATA PATH      : C:\IRI\Python_Dash\ET_DSS_hist\TEST\
 TREATMENT  1   : ERiMA DCC1                MZCER047
  


!SOIL INORGANIC N BALANCE                         Initial               Final
!                                                Year/Doy            Year/Doy
!                                                1982/165            1982/272
!                                               (kg[N]/ha)          (kg[N]/ha)
! Soil N state variables:
!   Soil NO3                                        39.60               88.07
!   Soil NH4                                         2.43                1.71
!   Soil Urea                                        0.00                0.00
!   Soil N gases                                     0.00                0.13

! N additions:
!   Fertilizer N                                    60.00
!   Mineralized N                                  101.51

! N subtractions:
!   N immobilized                                                        0.00
!   N leached                                                            2.85
!   N loss to tile drainage                                              0.00
!   N Uptake From Soil                                                 108.79
!   NH3 loss                                                             0.00
!   N2O loss                                                             0.39
!   N2 loss                                                              0.74
!   NO loss                                                              0.86

!   Total N balance                                203.54              203.54
!   Balance                                                             0.000

!===============================================================================

*DSSAT Cropping System Model Ver. 4.7.5.008 -release  JAN 07, 2021 20:33:24

*RUN   3        : ERiMA DCC1                MZCER047 ETMZmelk    1
 MODEL          : MZCER047 - Maize
 EXPERIMENT     : ETMZmelk SN MELKSSAL
 DATA PATH      : C:\IRI\Python_Dash\ET_DSS_hist\TEST\
 TREATMENT  1   : ERiMA DCC1                MZCER047
  


!SOIL INORGANIC N BALANCE                         Initial               Final
!                                                Year/Doy            Year/Doy
!                                                1983/165            1983/267
!                                               (kg[N]/ha)          (kg[N]/ha)
! Soil N state variables:
!   Soil NO3                                        39.60               77.24
!   Soil NH4                                         2.43                2.12
!   Soil Urea                                        0.00                0.00
!   Soil N gases                                     0.00                0.42

! N additions:
!   Fertilizer N                                    60.00
!   Mineralized N                                  100.06

! N subtractions:
!   N immobilized                                                        0.00
!   N leached                                                            4.41
!   N loss to tile drainage                                              0.00
!   N Uptake From Soil                                                 116.58
!   NH3 loss                                                             0.00
!   N2O loss                                                             0.19
!   N2 loss                                                              0.28
!   NO loss                                                              0.85

!   Total N balance                                202.09              202.09
!   Balance                                                            -0.000

!===============================================================================

*DSSAT Cropping System Model Ver. 4.7.5.008 -release  JAN 07, 2021 20:33:24

*RUN   4        : ERiMA DCC1                MZCER047 ETMZmelk    1
 MODEL          : MZCER047 - Maize
 EXPERIMENT     : ETMZmelk SN MELKSSAL
 DATA PATH      : C:\IRI\Python_Dash\ET_DSS_hist\TEST\
 TREATMENT  1   : ERiMA DCC1                MZCER047
  


!SOIL INORGANIC N BALANCE                         Initial               Final
!                                                Year/Doy            Year/Doy
!                                                1984/165            1984/272
!                                               (kg[N]/ha)          (kg[N]/ha)
! Soil N state variables:
!   Soil NO3                                        39.60               69.26
!   Soil NH4                                         2.43                1.64
!   Soil Urea                                        0.00                0.00
!   Soil N gases                                     0.00                0.10

! N additions:
!   Fertilizer N                                    60.00
!   Mineralized N                                   96.90

! N subtractions:
!   N immobilized                                                        0.00
!   N leached                                                            1.01
!   N loss to tile drainage                                              0.00
!   N Uptake From Soil                                                 125.86
!   NH3 loss                                                             0.00
!   N2O loss                                                             0.18
!   N2 loss                                                              0.27
!   NO loss                                                              0.59

!   Total N balance                                198.93              198.93
!   Balance                                                            -0.000

!===============================================================================

*DSSAT Cropping System Model Ver. 4.7.5.008 -release  JAN 07, 2021 20:33:24

*RUN   5        : ERiMA DCC1                MZCER047 ETMZmelk    1
 MODEL          : MZCER047 - Maize
 EXPERIMENT     : ETMZmelk SN MELKSSAL
 DATA PATH      : C:\IRI\Python_Dash\ET_DSS_hist\TEST\
 TREATMENT  1   : ERiMA DCC1                MZCER047
  


!SOIL INORGANIC N BALANCE                         Initial               Final
!                                                Year/Doy            Year/Doy
!                                                1985/165            1985/277
!                                               (kg[N]/ha)          (kg[N]/ha)
! Soil N state variables:
!   Soil NO3                                        39.60               82.17
!   Soil NH4                                         2.43                1.78
!   Soil Urea                                        0.00                0.00
!   Soil N gases                                     0.00                0.15

! N additions:
!   Fertilizer N                                    60.00
!   Mineralized N                                  104.85

! N subtractions:
!   N immobilized                                                        0.00
!   N leached                                                           10.09
!   N loss to tile drainage                                              0.00
!   N Uptake From Soil                                                 110.65
!   NH3 loss                                                             0.00
!   N2O loss                                                             0.27
!   N2 loss                                                              0.85
!   NO loss                                                              0.90

!   Total N balance                                206.87              206.87
!   Balance                                                             0.000

!===============================================================================

*DSSAT Cropping System Model Ver. 4.7.5.008 -release  JAN 07, 2021 20:33:24

*RUN   6        : ERiMA DCC1                MZCER047 ETMZmelk    1
 MODEL          : MZCER047 - Maize
 EXPERIMENT     : ETMZmelk SN MELKSSAL
 DATA PATH      : C:\IRI\Python_Dash\ET_DSS_hist\TEST\
 TREATMENT  1   : ERiMA DCC1                MZCER047
  


!SOIL INORGANIC N BALANCE                         Initial               Final
!                                                Year/Doy            Year/Doy
!                                                1986/165            1986/276
!                                               (kg[N]/ha)          (kg[N]/ha)
! Soil N state variables:
!   Soil NO3                                        39.60               75.36
!   Soil NH4                                         2.43                1.55
!   Soil Urea                                        0.00                0.00
!   Soil N gases                                     0.00                0.09

! N additions:
!   Fertilizer N                                    60.00
!   Mineralized N                                  100.13

! N subtractions:
!   N immobilized                                                        0.00
!   N leached                                                            0.69
!   N loss to tile drainage                                              0.00
!   N Uptake From Soil                                                 123.68
!   NH3 loss                                                             0.00
!   N2O loss                                                             0.14
!   N2 loss                                                              0.10
!   NO loss                                                              0.54

!   Total N balance                                202.16              202.16
!   Balance                                                            -0.000

!===============================================================================

*DSSAT Cropping System Model Ver. 4.7.5.008 -release  JAN 07, 2021 20:33:24

*RUN   7        : ERiMA DCC1                MZCER047 ETMZmelk    1
 MODEL          : MZCER047 - Maize
 EXPERIMENT     : ETMZmelk SN MELKSSAL
 DATA PATH      : C:\IRI\Python_Dash\ET_DSS_hist\TEST\
 TREATMENT  1   : ERiMA DCC1                MZCER047
  


!SOIL INORGANIC N BALANCE                         Initial               Final
!                                                Year/Doy            Year/Doy
!                                                1987/165            1987/264
!                                               (kg[N]/ha)          (kg[N]/ha)
! Soil N state variables:
!   Soil NO3                                        39.60              130.06
!   Soil NH4                                         2.43                1.65
!   Soil Urea                                        0.00                0.00
!   Soil N gases                                     0.00                0.11

! N additions:
!   Fertilizer N                                    60.00
!   Mineralized N                                   95.22

! N subtractions:
!   N immobilized                                                        0.00
!   N leached                                                            0.98
!   N loss to tile drainage                                              0.00
!   N Uptake From Soil                                                  63.73
!   NH3 loss                                                             0.00
!   N2O loss                                                             0.13
!   N2 loss                                                              0.01
!   NO loss                                                              0.58

!   Total N balance                                197.25              197.25
!   Balance                                                             0.000

!===============================================================================

*DSSAT Cropping System Model Ver. 4.7.5.008 -release  JAN 07, 2021 20:33:24

*RUN   8        : ERiMA DCC1                MZCER047 ETMZmelk    1
 MODEL          : MZCER047 - Maize
 EXPERIMENT     : ETMZmelk SN MELKSSAL
 DATA PATH      : C:\IRI\Python_Dash\ET_DSS_hist\TEST\
 TREATMENT  1   : ERiMA DCC1                MZCER047
  


!SOIL INORGANIC N BALANCE                         Initial               Final
!                                                Year/Doy            Year/Doy
!                                                1988/165            1988/270
!                                               (kg[N]/ha)          (kg[N]/ha)
! Soil N state variables:
!   Soil NO3                                        39.60               88.09
!   Soil NH4                                         2.43                2.14
!   Soil Urea                                        0.00                0.00
!   Soil N gases                                     0.00                0.40

! N additions:
!   Fertilizer N                                    60.00
!   Mineralized N                                  100.06

! N subtractions:
!   N immobilized                                                        0.00
!   N leached                                                            9.64
!   N loss to tile drainage                                              0.00
!   N Uptake From Soil                                                  99.83
!   NH3 loss                                                             0.00
!   N2O loss                                                             0.34
!   N2 loss                                                              0.80
!   NO loss                                                              0.85

!   Total N balance                                202.08              202.08
!   Balance                                                             0.000

!===============================================================================

*DSSAT Cropping System Model Ver. 4.7.5.008 -release  JAN 07, 2021 20:33:24

*RUN   9        : ERiMA DCC1                MZCER047 ETMZmelk    1
 MODEL          : MZCER047 - Maize
 EXPERIMENT     : ETMZmelk SN MELKSSAL
 DATA PATH      : C:\IRI\Python_Dash\ET_DSS_hist\TEST\
 TREATMENT  1   : ERiMA DCC1                MZCER047
  


!SOIL INORGANIC N BALANCE                         Initial               Final
!                                                Year/Doy            Year/Doy
!                                                1989/165            1989/270
!                                               (kg[N]/ha)          (kg[N]/ha)
! Soil N state variables:
!   Soil NO3                                        39.60               81.21
!   Soil NH4                                         2.43                1.92
!   Soil Urea                                        0.00                0.00
!   Soil N gases                                     0.00                0.56

! N additions:
!   Fertilizer N                                    60.00
!   Mineralized N                                  103.20

! N subtractions:
!   N immobilized                                                        0.00
!   N leached                                                            8.55
!   N loss to tile drainage                                              0.00
!   N Uptake From Soil                                                 111.21
!   NH3 loss                                                             0.00
!   N2O loss                                                             0.32
!   N2 loss                                                              0.63
!   NO loss                                                              0.82

!   Total N balance                                205.23              205.23
!   Balance                                                            -0.000

!===============================================================================

*DSSAT Cropping System Model Ver. 4.7.5.008 -release  JAN 07, 2021 20:33:24

*RUN  10        : ERiMA DCC1                MZCER047 ETMZmelk    1
 MODEL          : MZCER047 - Maize
 EXPERIMENT     : ETMZmelk SN MELKSSAL
 DATA PATH      : C:\IRI\Python_Dash\ET_DSS_hist\TEST\
 TREATMENT  1   : ERiMA DCC1                MZCER047
  


!SOIL INORGANIC N BALANCE                         Initial               Final
!                                                Year/Doy            Year/Doy
!                                                1990/165            1990/270
!                                               (kg[N]/ha)          (kg[N]/ha)
! Soil N state variables:
!   Soil NO3                                        39.60               77.96
!   Soil NH4                                         2.43                2.00
!   Soil Urea                                        0.00                0.00
!   Soil N gases                                     0.00                0.11

! N additions:
!   Fertilizer N                                    60.00
!   Mineralized N                                  105.24

! N subtractions:
!   N immobilized                                                        0.00
!   N leached                                                            1.60
!   N loss to tile drainage                                              0.00
!   N Uptake From Soil                                                 124.92
!   NH3 loss                                                             0.00
!   N2O loss                                                             0.13
!   N2 loss                                                              0.00
!   NO loss                                                              0.55

!   Total N balance                                207.27              207.27
!   Balance                                                             0.000

!===============================================================================

*DSSAT Cropping System Model Ver. 4.7.5.008 -release  JAN 07, 2021 20:33:24

*RUN  11        : ERiMA DCC1                MZCER047 ETMZmelk    1
 MODEL          : MZCER047 - Maize
 EXPERIMENT     : ETMZmelk SN MELKSSAL
 DATA PATH      : C:\IRI\Python_Dash\ET_DSS_hist\TEST\
 TREATMENT  1   : ERiMA DCC1                MZCER047
  


!SOIL INORGANIC N BALANCE                         Initial               Final
!                                                Year/Doy            Year/Doy
!                                                1991/165            1991/269
!                                               (kg[N]/ha)          (kg[N]/ha)
! Soil N state variables:
!   Soil NO3                                        39.60               76.47
!   Soil NH4                                         2.43                1.69
!   Soil Urea                                        0.00                0.00
!   Soil N gases                                     0.00                0.11

! N additions:
!   Fertilizer N                                    60.00
!   Mineralized N                                  101.40

! N subtractions:
!   N immobilized                                                        0.00
!   N leached                                                            2.23
!   N loss to tile drainage                                              0.00
!   N Uptake From Soil                                                 122.10
!   NH3 loss                                                             0.00
!   N2O loss                                                             0.17
!   N2 loss                                                              0.10
!   NO loss                                                              0.56

!   Total N balance                                203.43              203.43
!   Balance                                                             0.000

!===============================================================================

*DSSAT Cropping System Model Ver. 4.7.5.008 -release  JAN 07, 2021 20:33:24

*RUN  12        : ERiMA DCC1                MZCER047 ETMZmelk    1
 MODEL          : MZCER047 - Maize
 EXPERIMENT     : ETMZmelk SN MELKSSAL
 DATA PATH      : C:\IRI\Python_Dash\ET_DSS_hist\TEST\
 TREATMENT  1   : ERiMA DCC1                MZCER047
  


!SOIL INORGANIC N BALANCE                         Initial               Final
!                                                Year/Doy            Year/Doy
!                                                1992/165            1992/271
!                                               (kg[N]/ha)          (kg[N]/ha)
! Soil N state variables:
!   Soil NO3                                        39.60               76.41
!   Soil NH4                                         2.43                2.10
!   Soil Urea                                        0.00                0.00
!   Soil N gases                                     0.00                0.16

! N additions:
!   Fertilizer N                                    60.00
!   Mineralized N                                  102.92

! N subtractions:
!   N immobilized                                                        0.00
!   N leached                                                           10.42
!   N loss to tile drainage                                              0.00
!   N Uptake From Soil                                                 114.94
!   NH3 loss                                                             0.00
!   N2O loss                                                             0.14
!   N2 loss                                                              0.10
!   NO loss                                                              0.67

!   Total N balance                                204.95              204.95
!   Balance                                                            -0.000

!===============================================================================

*DSSAT Cropping System Model Ver. 4.7.5.008 -release  JAN 07, 2021 20:33:24

*RUN  13        : ERiMA DCC1                MZCER047 ETMZmelk    1
 MODEL          : MZCER047 - Maize
 EXPERIMENT     : ETMZmelk SN MELKSSAL
 DATA PATH      : C:\IRI\Python_Dash\ET_DSS_hist\TEST\
 TREATMENT  1   : ERiMA DCC1                MZCER047
  


!SOIL INORGANIC N BALANCE                         Initial               Final
!                                                Year/Doy            Year/Doy
!                                                1993/165            1993/272
!                                               (kg[N]/ha)          (kg[N]/ha)
! Soil N state variables:
!   Soil NO3                                        39.60               79.66
!   Soil NH4                                         2.43                2.07
!   Soil Urea                                        0.00                0.00
!   Soil N gases                                     0.00                0.13

! N additions:
!   Fertilizer N                                    60.00
!   Mineralized N                                  105.82

! N subtractions:
!   N immobilized                                                        0.00
!   N leached                                                            6.12
!   N loss to tile drainage                                              0.00
!   N Uptake From Soil                                                 119.16
!   NH3 loss                                                             0.00
!   N2O loss                                                             0.14
!   N2 loss                                                              0.05
!   NO loss                                                              0.52

!   Total N balance                                207.84              207.84
!   Balance                                                            -0.000

!===============================================================================

*DSSAT Cropping System Model Ver. 4.7.5.008 -release  JAN 07, 2021 20:33:24

*RUN  14        : ERiMA DCC1                MZCER047 ETMZmelk    1
 MODEL          : MZCER047 - Maize
 EXPERIMENT     : ETMZmelk SN MELKSSAL
 DATA PATH      : C:\IRI\Python_Dash\ET_DSS_hist\TEST\
 TREATMENT  1   : ERiMA DCC1                MZCER047
  


!SOIL INORGANIC N BALANCE                         Initial               Final
!                                                Year/Doy            Year/Doy
!                                                1994/165            1994/271
!                                               (kg[N]/ha)          (kg[N]/ha)
! Soil N state variables:
!   Soil NO3                                        39.60               79.45
!   Soil NH4                                         2.43                1.95
!   Soil Urea                                        0.00                0.00
!   Soil N gases                                     0.00                0.13

! N additions:
!   Fertilizer N                                    60.00
!   Mineralized N                                  101.44

! N subtractions:
!   N immobilized                                                        0.00
!   N leached                                                            3.98
!   N loss to tile drainage                                              0.00
!   N Uptake From Soil                                                 116.95
!   NH3 loss                                                             0.00
!   N2O loss                                                             0.16
!   N2 loss                                                              0.17
!   NO loss                                                              0.67

!   Total N balance                                203.46              203.46
!   Balance                                                             0.000

!===============================================================================

*DSSAT Cropping System Model Ver. 4.7.5.008 -release  JAN 07, 2021 20:33:24

*RUN  15        : ERiMA DCC1                MZCER047 ETMZmelk    1
 MODEL          : MZCER047 - Maize
 EXPERIMENT     : ETMZmelk SN MELKSSAL
 DATA PATH      : C:\IRI\Python_Dash\ET_DSS_hist\TEST\
 TREATMENT  1   : ERiMA DCC1                MZCER047
  


!SOIL INORGANIC N BALANCE                         Initial               Final
!                                                Year/Doy            Year/Doy
!                                                1995/165            1995/269
!                                               (kg[N]/ha)          (kg[N]/ha)
! Soil N state variables:
!   Soil NO3                                        39.60               81.12
!   Soil NH4                                         2.43                1.97
!   Soil Urea                                        0.00                0.00
!   Soil N gases                                     0.00                0.12

! N additions:
!   Fertilizer N                                    60.00
!   Mineralized N                                  103.71

! N subtractions:
!   N immobilized                                                        0.00
!   N leached                                                            4.33
!   N loss to tile drainage                                              0.00
!   N Uptake From Soil                                                 117.19
!   NH3 loss                                                             0.00
!   N2O loss                                                             0.18
!   N2 loss                                                              0.22
!   NO loss                                                              0.61

!   Total N balance                                205.74              205.74
!   Balance                                                             0.000

!===============================================================================

*DSSAT Cropping System Model Ver. 4.7.5.008 -release  JAN 07, 2021 20:33:24

*RUN  16        : ERiMA DCC1                MZCER047 ETMZmelk    1
 MODEL          : MZCER047 - Maize
 EXPERIMENT     : ETMZmelk SN MELKSSAL
 DATA PATH      : C:\IRI\Python_Dash\ET_DSS_hist\TEST\
 TREATMENT  1   : ERiMA DCC1                MZCER047
  


!SOIL INORGANIC N BALANCE                         Initial               Final
!                                                Year/Doy            Year/Doy
!                                                1996/165            1996/273
!                                               (kg[N]/ha)          (kg[N]/ha)
! Soil N state variables:
!   Soil NO3                                        39.60               76.50
!   Soil NH4                                         2.43                1.87
!   Soil Urea                                        0.00                0.00
!   Soil N gases                                     0.00                0.11

! N additions:
!   Fertilizer N                                    60.00
!   Mineralized N                                  101.83

! N subtractions:
!   N immobilized                                                        0.00
!   N leached                                                            3.60
!   N loss to tile drainage                                              0.00
!   N Uptake From Soil                                                 120.42
!   NH3 loss                                                             0.00
!   N2O loss                                                             0.27
!   N2 loss                                                              0.42
!   NO loss                                                              0.66

!   Total N balance                                203.86              203.86
!   Balance                                                            -0.000

!===============================================================================

*DSSAT Cropping System Model Ver. 4.7.5.008 -release  JAN 07, 2021 20:33:24

*RUN  17        : ERiMA DCC1                MZCER047 ETMZmelk    1
 MODEL          : MZCER047 - Maize
 EXPERIMENT     : ETMZmelk SN MELKSSAL
 DATA PATH      : C:\IRI\Python_Dash\ET_DSS_hist\TEST\
 TREATMENT  1   : ERiMA DCC1                MZCER047
  


!SOIL INORGANIC N BALANCE                         Initial               Final
!                                                Year/Doy            Year/Doy
!                                                1997/165            1997/267
!                                               (kg[N]/ha)          (kg[N]/ha)
! Soil N state variables:
!   Soil NO3                                        39.60               81.73
!   Soil NH4                                         2.43                1.72
!   Soil Urea                                        0.00                0.00
!   Soil N gases                                     0.00                0.11

! N additions:
!   Fertilizer N                                    60.00
!   Mineralized N                                  100.41

! N subtractions:
!   N immobilized                                                        0.00
!   N leached                                                            3.60
!   N loss to tile drainage                                              0.00
!   N Uptake From Soil                                                 114.18
!   NH3 loss                                                             0.00
!   N2O loss                                                             0.19
!   N2 loss                                                              0.19
!   NO loss                                                              0.72

!   Total N balance                                202.44              202.44
!   Balance                                                            -0.000

!===============================================================================

*DSSAT Cropping System Model Ver. 4.7.5.008 -release  JAN 07, 2021 20:33:24

*RUN  18        : ERiMA DCC1                MZCER047 ETMZmelk    1
 MODEL          : MZCER047 - Maize
 EXPERIMENT     : ETMZmelk SN MELKSSAL
 DATA PATH      : C:\IRI\Python_Dash\ET_DSS_hist\TEST\
 TREATMENT  1   : ERiMA DCC1                MZCER047
  


!SOIL INORGANIC N BALANCE                         Initial               Final
!                                                Year/Doy            Year/Doy
!                                                1998/165            1998/270
!                                               (kg[N]/ha)          (kg[N]/ha)
! Soil N state variables:
!   Soil NO3                                        39.60               78.83
!   Soil NH4                                         2.43                2.07
!   Soil Urea                                        0.00                0.00
!   Soil N gases                                     0.00                0.23

! N additions:
!   Fertilizer N                                    60.00
!   Mineralized N                                  105.61

! N subtractions:
!   N immobilized                                                        0.00
!   N leached                                                           13.85
!   N loss to tile drainage                                              0.00
!   N Uptake From Soil                                                 111.49
!   NH3 loss                                                             0.00
!   N2O loss                                                             0.18
!   N2 loss                                                              0.38
!   NO loss                                                              0.61

!   Total N balance                                207.64              207.64
!   Balance                                                             0.000

!===============================================================================

*DSSAT Cropping System Model Ver. 4.7.5.008 -release  JAN 07, 2021 20:33:24

*RUN  19        : ERiMA DCC1                MZCER047 ETMZmelk    1
 MODEL          : MZCER047 - Maize
 EXPERIMENT     : ETMZmelk SN MELKSSAL
 DATA PATH      : C:\IRI\Python_Dash\ET_DSS_hist\TEST\
 TREATMENT  1   : ERiMA DCC1                MZCER047
  


!SOIL INORGANIC N BALANCE                         Initial               Final
!                                                Year/Doy            Year/Doy
!                                                1999/165            1999/274
!                                               (kg[N]/ha)          (kg[N]/ha)
! Soil N state variables:
!   Soil NO3                                        39.60               88.89
!   Soil NH4                                         2.43                1.76
!   Soil Urea                                        0.00                0.00
!   Soil N gases                                     0.00                0.13

! N additions:
!   Fertilizer N                                    60.00
!   Mineralized N                                   99.81

! N subtractions:
!   N immobilized                                                        0.00
!   N leached                                                            7.40
!   N loss to tile drainage                                              0.00
!   N Uptake From Soil                                                 102.00
!   NH3 loss                                                             0.00
!   N2O loss                                                             0.25
!   N2 loss                                                              0.61
!   NO loss                                                              0.80

!   Total N balance                                201.84              201.84
!   Balance                                                            -0.000

!===============================================================================

*DSSAT Cropping System Model Ver. 4.7.5.008 -release  JAN 07, 2021 20:33:24

*RUN  20        : ERiMA DCC1                MZCER047 ETMZmelk    1
 MODEL          : MZCER047 - Maize
 EXPERIMENT     : ETMZmelk SN MELKSSAL
 DATA PATH      : C:\IRI\Python_Dash\ET_DSS_hist\TEST\
 TREATMENT  1   : ERiMA DCC1                MZCER047
  


!SOIL INORGANIC N BALANCE                         Initial               Final
!                                                Year/Doy            Year/Doy
!                                                2000/165            2000/271
!                                               (kg[N]/ha)          (kg[N]/ha)
! Soil N state variables:
!   Soil NO3                                        39.60               84.74
!   Soil NH4                                         2.43                2.15
!   Soil Urea                                        0.00                0.00
!   Soil N gases                                     0.00                0.15

! N additions:
!   Fertilizer N                                    60.00
!   Mineralized N                                  102.67

! N subtractions:
!   N immobilized                                                        0.00
!   N leached                                                            7.01
!   N loss to tile drainage                                              0.00
!   N Uptake From Soil                                                 109.23
!   NH3 loss                                                             0.00
!   N2O loss                                                             0.22
!   N2 loss                                                              0.45
!   NO loss                                                              0.73

!   Total N balance                                204.69              204.69
!   Balance                                                             0.000

!===============================================================================

*DSSAT Cropping System Model Ver. 4.7.5.008 -release  JAN 07, 2021 20:33:24

*RUN  21        : ERiMA DCC1                MZCER047 ETMZmelk    1
 MODEL          : MZCER047 - Maize
 EXPERIMENT     : ETMZmelk SN MELKSSAL
 DATA PATH      : C:\IRI\Python_Dash\ET_DSS_hist\TEST\
 TREATMENT  1   : ERiMA DCC1                MZCER047
  


!SOIL INORGANIC N BALANCE                         Initial               Final
!                                                Year/Doy            Year/Doy
!                                                2001/165            2001/271
!                                               (kg[N]/ha)          (kg[N]/ha)
! Soil N state variables:
!   Soil NO3                                        39.60               79.68
!   Soil NH4                                         2.43                1.70
!   Soil Urea                                        0.00                0.00
!   Soil N gases                                     0.00                0.13

! N additions:
!   Fertilizer N                                    60.00
!   Mineralized N                                  102.95

! N subtractions:
!   N immobilized                                                        0.00
!   N leached                                                            9.97
!   N loss to tile drainage                                              0.00
!   N Uptake From Soil                                                 112.55
!   NH3 loss                                                             0.00
!   N2O loss                                                             0.15
!   N2 loss                                                              0.16
!   NO loss                                                              0.63

!   Total N balance                                204.97              204.97
!   Balance                                                             0.000

!===============================================================================

*DSSAT Cropping System Model Ver. 4.7.5.008 -release  JAN 07, 2021 20:33:24

*RUN  22        : ERiMA DCC1                MZCER047 ETMZmelk    1
 MODEL          : MZCER047 - Maize
 EXPERIMENT     : ETMZmelk SN MELKSSAL
 DATA PATH      : C:\IRI\Python_Dash\ET_DSS_hist\TEST\
 TREATMENT  1   : ERiMA DCC1                MZCER047
  


!SOIL INORGANIC N BALANCE                         Initial               Final
!                                                Year/Doy            Year/Doy
!                                                2002/165            2002/267
!                                               (kg[N]/ha)          (kg[N]/ha)
! Soil N state variables:
!   Soil NO3                                        39.60              128.70
!   Soil NH4                                         2.43                2.06
!   Soil Urea                                        0.00                0.00
!   Soil N gases                                     0.00                0.11

! N additions:
!   Fertilizer N                                    60.00
!   Mineralized N                                   99.94

! N subtractions:
!   N immobilized                                                        0.00
!   N leached                                                            3.65
!   N loss to tile drainage                                              0.00
!   N Uptake From Soil                                                  66.37
!   NH3 loss                                                             0.00
!   N2O loss                                                             0.20
!   N2 loss                                                              0.21
!   NO loss                                                              0.68

!   Total N balance                                201.97              201.97
!   Balance                                                            -0.000

!===============================================================================

*DSSAT Cropping System Model Ver. 4.7.5.008 -release  JAN 07, 2021 20:33:24

*RUN  23        : ERiMA DCC1                MZCER047 ETMZmelk    1
 MODEL          : MZCER047 - Maize
 EXPERIMENT     : ETMZmelk SN MELKSSAL
 DATA PATH      : C:\IRI\Python_Dash\ET_DSS_hist\TEST\
 TREATMENT  1   : ERiMA DCC1                MZCER047
  


!SOIL INORGANIC N BALANCE                         Initial               Final
!                                                Year/Doy            Year/Doy
!                                                2003/165            2003/269
!                                               (kg[N]/ha)          (kg[N]/ha)
! Soil N state variables:
!   Soil NO3                                        39.60               89.55
!   Soil NH4                                         2.43                1.96
!   Soil Urea                                        0.00                0.00
!   Soil N gases                                     0.00                0.23

! N additions:
!   Fertilizer N                                    60.00
!   Mineralized N                                  102.44

! N subtractions:
!   N immobilized                                                        0.00
!   N leached                                                            8.53
!   N loss to tile drainage                                              0.00
!   N Uptake From Soil                                                 102.89
!   NH3 loss                                                             0.00
!   N2O loss                                                             0.22
!   N2 loss                                                              0.45
!   NO loss                                                              0.64

!   Total N balance                                204.47              204.47
!   Balance                                                             0.000

!===============================================================================

*DSSAT Cropping System Model Ver. 4.7.5.008 -release  JAN 07, 2021 20:33:24

*RUN  24        : ERiMA DCC1                MZCER047 ETMZmelk    1
 MODEL          : MZCER047 - Maize
 EXPERIMENT     : ETMZmelk SN MELKSSAL
 DATA PATH      : C:\IRI\Python_Dash\ET_DSS_hist\TEST\
 TREATMENT  1   : ERiMA DCC1                MZCER047
  


!SOIL INORGANIC N BALANCE                         Initial               Final
!                                                Year/Doy            Year/Doy
!                                                2004/165            2004/269
!                                               (kg[N]/ha)          (kg[N]/ha)
! Soil N state variables:
!   Soil NO3                                        39.60               82.73
!   Soil NH4                                         2.43                1.97
!   Soil Urea                                        0.00                0.00
!   Soil N gases                                     0.00                0.11

! N additions:
!   Fertilizer N                                    60.00
!   Mineralized N                                  100.81

! N subtractions:
!   N immobilized                                                        0.00
!   N leached                                                            5.51
!   N loss to tile drainage                                              0.00
!   N Uptake From Soil                                                 111.77
!   NH3 loss                                                             0.00
!   N2O loss                                                             0.13
!   N2 loss                                                              0.04
!   NO loss                                                              0.57

!   Total N balance                                202.84              202.84
!   Balance                                                             0.000

!===============================================================================

*DSSAT Cropping System Model Ver. 4.7.5.008 -release  JAN 07, 2021 20:33:24

*RUN  25        : ERiMA DCC1                MZCER047 ETMZmelk    1
 MODEL          : MZCER047 - Maize
 EXPERIMENT     : ETMZmelk SN MELKSSAL
 DATA PATH      : C:\IRI\Python_Dash\ET_DSS_hist\TEST\
 TREATMENT  1   : ERiMA DCC1                MZCER047
  


!SOIL INORGANIC N BALANCE                         Initial               Final
!                                                Year/Doy            Year/Doy
!                                                2005/165            2005/269
!                                               (kg[N]/ha)          (kg[N]/ha)
! Soil N state variables:
!   Soil NO3                                        39.60               81.73
!   Soil NH4                                         2.43                1.75
!   Soil Urea                                        0.00                0.00
!   Soil N gases                                     0.00                0.13

! N additions:
!   Fertilizer N                                    60.00
!   Mineralized N                                  100.24

! N subtractions:
!   N immobilized                                                        0.00
!   N leached                                                            3.40
!   N loss to tile drainage                                              0.00
!   N Uptake From Soil                                                 114.24
!   NH3 loss                                                             0.00
!   N2O loss                                                             0.21
!   N2 loss                                                              0.18
!   NO loss                                                              0.63

!   Total N balance                                202.26              202.26
!   Balance                                                             0.000

!===============================================================================

*DSSAT Cropping System Model Ver. 4.7.5.008 -release  JAN 07, 2021 20:33:24

*RUN  26        : ERiMA DCC1                MZCER047 ETMZmelk    1
 MODEL          : MZCER047 - Maize
 EXPERIMENT     : ETMZmelk SN MELKSSAL
 DATA PATH      : C:\IRI\Python_Dash\ET_DSS_hist\TEST\
 TREATMENT  1   : ERiMA DCC1                MZCER047
  


!SOIL INORGANIC N BALANCE                         Initial               Final
!                                                Year/Doy            Year/Doy
!                                                2006/165            2006/270
!                                               (kg[N]/ha)          (kg[N]/ha)
! Soil N state variables:
!   Soil NO3                                        39.60               88.81
!   Soil NH4                                         2.43                1.98
!   Soil Urea                                        0.00                0.00
!   Soil N gases                                     0.00                0.14

! N additions:
!   Fertilizer N                                    60.00
!   Mineralized N                                  102.48

! N subtractions:
!   N immobilized                                                        0.00
!   N leached                                                            5.03
!   N loss to tile drainage                                              0.00
!   N Uptake From Soil                                                 107.37
!   NH3 loss                                                             0.00
!   N2O loss                                                             0.17
!   N2 loss                                                              0.26
!   NO loss                                                              0.75

!   Total N balance                                204.51              204.51
!   Balance                                                             0.000

!===============================================================================

*DSSAT Cropping System Model Ver. 4.7.5.008 -release  JAN 07, 2021 20:33:24

*RUN  27        : ERiMA DCC1                MZCER047 ETMZmelk    1
 MODEL          : MZCER047 - Maize
 EXPERIMENT     : ETMZmelk SN MELKSSAL
 DATA PATH      : C:\IRI\Python_Dash\ET_DSS_hist\TEST\
 TREATMENT  1   : ERiMA DCC1                MZCER047
  


!SOIL INORGANIC N BALANCE                         Initial               Final
!                                                Year/Doy            Year/Doy
!                                                2007/165            2007/272
!                                               (kg[N]/ha)          (kg[N]/ha)
! Soil N state variables:
!   Soil NO3                                        39.60               91.60
!   Soil NH4                                         2.43                1.92
!   Soil Urea                                        0.00                0.00
!   Soil N gases                                     0.00                0.31

! N additions:
!   Fertilizer N                                    60.00
!   Mineralized N                                  101.99

! N subtractions:
!   N immobilized                                                        0.00
!   N leached                                                            8.43
!   N loss to tile drainage                                              0.00
!   N Uptake From Soil                                                  99.90
!   NH3 loss                                                             0.00
!   N2O loss                                                             0.31
!   N2 loss                                                              0.77
!   NO loss                                                              0.77

!   Total N balance                                204.02              204.02
!   Balance                                                             0.000

!===============================================================================

*DSSAT Cropping System Model Ver. 4.7.5.008 -release  JAN 07, 2021 20:33:24

*RUN  28        : ERiMA DCC1                MZCER047 ETMZmelk    1
 MODEL          : MZCER047 - Maize
 EXPERIMENT     : ETMZmelk SN MELKSSAL
 DATA PATH      : C:\IRI\Python_Dash\ET_DSS_hist\TEST\
 TREATMENT  1   : ERiMA DCC1                MZCER047
  


!SOIL INORGANIC N BALANCE                         Initial               Final
!                                                Year/Doy            Year/Doy
!                                                2008/165            2008/270
!                                               (kg[N]/ha)          (kg[N]/ha)
! Soil N state variables:
!   Soil NO3                                        39.60               82.37
!   Soil NH4                                         2.43                2.04
!   Soil Urea                                        0.00                0.00
!   Soil N gases                                     0.00                0.14

! N additions:
!   Fertilizer N                                    60.00
!   Mineralized N                                  103.63

! N subtractions:
!   N immobilized                                                        0.00
!   N leached                                                            8.42
!   N loss to tile drainage                                              0.00
!   N Uptake From Soil                                                 111.02
!   NH3 loss                                                             0.00
!   N2O loss                                                             0.30
!   N2 loss                                                              0.59
!   NO loss                                                              0.77

!   Total N balance                                205.65              205.65
!   Balance                                                             0.000

!===============================================================================

*DSSAT Cropping System Model Ver. 4.7.5.008 -release  JAN 07, 2021 20:33:24

*RUN  29        : ERiMA DCC1                MZCER047 ETMZmelk    1
 MODEL          : MZCER047 - Maize
 EXPERIMENT     : ETMZmelk SN MELKSSAL
 DATA PATH      : C:\IRI\Python_Dash\ET_DSS_hist\TEST\
 TREATMENT  1   : ERiMA DCC1                MZCER047
  


!SOIL INORGANIC N BALANCE                         Initial               Final
!                                                Year/Doy            Year/Doy
!                                                2009/165            2009/264
!                                               (kg[N]/ha)          (kg[N]/ha)
! Soil N state variables:
!   Soil NO3                                        39.60               82.20
!   Soil NH4                                         2.43                1.76
!   Soil Urea                                        0.00                0.00
!   Soil N gases                                     0.00                0.11

! N additions:
!   Fertilizer N                                    60.00
!   Mineralized N                                  100.10

! N subtractions:
!   N immobilized                                                        0.00
!   N leached                                                            2.20
!   N loss to tile drainage                                              0.00
!   N Uptake From Soil                                                 114.87
!   NH3 loss                                                             0.00
!   N2O loss                                                             0.13
!   N2 loss                                                              0.06
!   NO loss                                                              0.80

!   Total N balance                                202.13              202.13
!   Balance                                                            -0.000

!===============================================================================

*DSSAT Cropping System Model Ver. 4.7.5.008 -release  JAN 07, 2021 20:33:24

*RUN  30        : ERiMA DCC1                MZCER047 ETMZmelk    1
 MODEL          : MZCER047 - Maize
 EXPERIMENT     : ETMZmelk SN MELKSSAL
 DATA PATH      : C:\IRI\Python_Dash\ET_DSS_hist\TEST\
 TREATMENT  1   : ERiMA DCC1                MZCER047
  


!SOIL INORGANIC N BALANCE                         Initial               Final
!                                                Year/Doy            Year/Doy
!                                                2010/165            2010/260
!                                               (kg[N]/ha)          (kg[N]/ha)
! Soil N state variables:
!   Soil NO3                                        39.60               81.26
!   Soil NH4                                         2.43                2.06
!   Soil Urea                                        0.00                0.00
!   Soil N gases                                     0.00                0.13

! N additions:
!   Fertilizer N                                    60.00
!   Mineralized N                                   97.33

! N subtractions:
!   N immobilized                                                        0.00
!   N leached                                                            5.42
!   N loss to tile drainage                                              0.00
!   N Uptake From Soil                                                 109.72
!   NH3 loss                                                             0.00
!   N2O loss                                                             0.15
!   N2 loss                                                              0.07
!   NO loss                                                              0.55

!   Total N balance                                199.36              199.36
!   Balance                                                             0.000

!===============================================================================

*DSSAT Cropping System Model Ver. 4.7.5.008 -release  JAN 07, 2021 20:33:24

*RUN  31        : ERiMA DCC1                MZCER047 ETMZmelk    1
 MODEL          : MZCER047 - Maize
 EXPERIMENT     : ETMZmelk SN MELKSSAL
 DATA PATH      : C:\IRI\Python_Dash\ET_DSS_hist\TEST\
 TREATMENT  1   : ERiMA DCC1                MZCER047
  


!SOIL INORGANIC N BALANCE                         Initial               Final
!                                                Year/Doy            Year/Doy
!                                                2011/165            2011/281
!                                               (kg[N]/ha)          (kg[N]/ha)
! Soil N state variables:
!   Soil NO3                                        39.60               83.33
!   Soil NH4                                         2.43                1.68
!   Soil Urea                                        0.00                0.00
!   Soil N gases                                     0.00                0.16

! N additions:
!   Fertilizer N                                    60.00
!   Mineralized N                                  105.37

! N subtractions:
!   N immobilized                                                        0.00
!   N leached                                                            9.77
!   N loss to tile drainage                                              0.00
!   N Uptake From Soil                                                 110.69
!   NH3 loss                                                             0.00
!   N2O loss                                                             0.25
!   N2 loss                                                              0.63
!   NO loss                                                              0.87

!   Total N balance                                207.39              207.39
!   Balance                                                             0.000

!===============================================================================

*DSSAT Cropping System Model Ver. 4.7.5.008 -release  JAN 07, 2021 20:33:24

*RUN  32        : ERiMA DCC1                MZCER047 ETMZmelk    1
 MODEL          : MZCER047 - Maize
 EXPERIMENT     : ETMZmelk SN MELKSSAL
 DATA PATH      : C:\IRI\Python_Dash\ET_DSS_hist\TEST\
 TREATMENT  1   : ERiMA DCC1                MZCER047
  


!SOIL INORGANIC N BALANCE                         Initial               Final
!                                                Year/Doy            Year/Doy
!                                                2012/165            2012/282
!                                               (kg[N]/ha)          (kg[N]/ha)
! Soil N state variables:
!   Soil NO3                                        39.60               83.30
!   Soil NH4                                         2.43                1.70
!   Soil Urea                                        0.00                0.00
!   Soil N gases                                     0.00                0.12

! N additions:
!   Fertilizer N                                    60.00
!   Mineralized N                                  106.83

! N subtractions:
!   N immobilized                                                        0.00
!   N leached                                                            8.77
!   N loss to tile drainage                                              0.00
!   N Uptake From Soil                                                 113.13
!   NH3 loss                                                             0.00
!   N2O loss                                                             0.34
!   N2 loss                                                              0.59
!   NO loss                                                              0.91

!   Total N balance                                208.86              208.86
!   Balance                                                             0.000

!===============================================================================

*DSSAT Cropping System Model Ver. 4.7.5.008 -release  JAN 07, 2021 20:33:24

*RUN  33        : ERiMA DCC1                MZCER047 ETMZmelk    1
 MODEL          : MZCER047 - Maize
 EXPERIMENT     : ETMZmelk SN MELKSSAL
 DATA PATH      : C:\IRI\Python_Dash\ET_DSS_hist\TEST\
 TREATMENT  1   : ERiMA DCC1                MZCER047
  


!SOIL INORGANIC N BALANCE                         Initial               Final
!                                                Year/Doy            Year/Doy
!                                                2013/165            2013/284
!                                               (kg[N]/ha)          (kg[N]/ha)
! Soil N state variables:
!   Soil NO3                                        39.60               84.66
!   Soil NH4                                         2.43                1.88
!   Soil Urea                                        0.00                0.00
!   Soil N gases                                     0.00                0.21

! N additions:
!   Fertilizer N                                    60.00
!   Mineralized N                                  106.60

! N subtractions:
!   N immobilized                                                        0.00
!   N leached                                                            5.91
!   N loss to tile drainage                                              0.00
!   N Uptake From Soil                                                 114.40
!   NH3 loss                                                             0.00
!   N2O loss                                                             0.31
!   N2 loss                                                              0.54
!   NO loss                                                              0.73

!   Total N balance                                208.63              208.63
!   Balance                                                             0.000

!===============================================================================

*DSSAT Cropping System Model Ver. 4.7.5.008 -release  JAN 07, 2021 20:33:24

*RUN  34        : ERiMA DCC1                MZCER047 ETMZmelk    1
 MODEL          : MZCER047 - Maize
 EXPERIMENT     : ETMZmelk SN MELKSSAL
 DATA PATH      : C:\IRI\Python_Dash\ET_DSS_hist\TEST\
 TREATMENT  1   : ERiMA DCC1                MZCER047
  


!SOIL INORGANIC N BALANCE                         Initial               Final
!                                                Year/Doy            Year/Doy
!                                                2014/165            2014/283
!                                               (kg[N]/ha)          (kg[N]/ha)
! Soil N state variables:
!   Soil NO3                                        39.60               87.13
!   Soil NH4                                         2.43                1.90
!   Soil Urea                                        0.00                0.00
!   Soil N gases                                     0.00                0.11

! N additions:
!   Fertilizer N                                    60.00
!   Mineralized N                                  106.28

! N subtractions:
!   N immobilized                                                        0.00
!   N leached                                                            0.33
!   N loss to tile drainage                                              0.00
!   N Uptake From Soil                                                 118.12
!   NH3 loss                                                             0.00
!   N2O loss                                                             0.14
!   N2 loss                                                              0.03
!   NO loss                                                              0.56

!   Total N balance                                208.31              208.31
!   Balance                                                             0.000

!===============================================================================

*DSSAT Cropping System Model Ver. 4.7.5.008 -release  JAN 07, 2021 20:33:24

*RUN  35        : ERiMA DCC1                MZCER047 ETMZmelk    1
 MODEL          : MZCER047 - Maize
 EXPERIMENT     : ETMZmelk SN MELKSSAL
 DATA PATH      : C:\IRI\Python_Dash\ET_DSS_hist\TEST\
 TREATMENT  1   : ERiMA DCC1                MZCER047
  


!SOIL INORGANIC N BALANCE                         Initial               Final
!                                                Year/Doy            Year/Doy
!                                                2015/165            2015/276
!                                               (kg[N]/ha)          (kg[N]/ha)
! Soil N state variables:
!   Soil NO3                                        39.60               78.31
!   Soil NH4                                         2.43                1.46
!   Soil Urea                                        0.00                0.00
!   Soil N gases                                     0.00                0.09

! N additions:
!   Fertilizer N                                    60.00
!   Mineralized N                                   99.98

! N subtractions:
!   N immobilized                                                        0.00
!   N leached                                                            0.00
!   N loss to tile drainage                                              0.00
!   N Uptake From Soil                                                 121.25
!   NH3 loss                                                             0.00
!   N2O loss                                                             0.18
!   N2 loss                                                              0.13
!   NO loss                                                              0.58

!   Total N balance                                202.00              202.00
!   Balance                                                            -0.000

!===============================================================================

*DSSAT Cropping System Model Ver. 4.7.5.008 -release  JAN 07, 2021 20:33:40

*RUN  36        : ERiMA DCC1                MZCER047 ETMZbako    1
 MODEL          : MZCER047 - Maize
 EXPERIMENT     : ETMZbako SN MELKSSAL
 DATA PATH      : C:\IRI\Python_Dash\ET_DSS_hist\TEST\
 TREATMENT  1   : ERiMA DCC1                MZCER047
  


!SOIL INORGANIC N BALANCE                         Initial               Final
!                                                Year/Doy            Year/Doy
!                                                1981/165            1981/310
!                                               (kg[N]/ha)          (kg[N]/ha)
! Soil N state variables:
!   Soil NO3                                        39.60               89.59
!   Soil NH4                                         2.43                1.48
!   Soil Urea                                        0.00                0.00
!   Soil N gases                                     0.00                0.27

! N additions:
!   Fertilizer N                                    60.00
!   Mineralized N                                  132.72

! N subtractions:
!   N immobilized                                                        0.00
!   N leached                                                           36.05
!   N loss to tile drainage                                              0.00
!   N Uptake From Soil                                                  97.77
!   NH3 loss                                                             0.00
!   N2O loss                                                             1.66
!   N2 loss                                                              5.31
!   NO loss                                                              2.62

!   Total N balance                                234.75              234.75
!   Balance                                                             0.000

!===============================================================================

*DSSAT Cropping System Model Ver. 4.7.5.008 -release  JAN 07, 2021 20:33:40

*RUN  37        : ERiMA DCC1                MZCER047 ETMZbako    1
 MODEL          : MZCER047 - Maize
 EXPERIMENT     : ETMZbako SN MELKSSAL
 DATA PATH      : C:\IRI\Python_Dash\ET_DSS_hist\TEST\
 TREATMENT  1   : ERiMA DCC1                MZCER047
  


!SOIL INORGANIC N BALANCE                         Initial               Final
!                                                Year/Doy            Year/Doy
!                                                1982/165            1982/306
!                                               (kg[N]/ha)          (kg[N]/ha)
! Soil N state variables:
!   Soil NO3                                        39.60               95.21
!   Soil NH4                                         2.43                1.68
!   Soil Urea                                        0.00                0.00
!   Soil N gases                                     0.00                0.20

! N additions:
!   Fertilizer N                                    60.00
!   Mineralized N                                  134.87

! N subtractions:
!   N immobilized                                                        0.00
!   N leached                                                           19.68
!   N loss to tile drainage                                              0.00
!   N Uptake From Soil                                                 114.43
!   NH3 loss                                                             0.00
!   N2O loss                                                             1.08
!   N2 loss                                                              2.84
!   NO loss                                                              1.78

!   Total N balance                                236.89              236.89
!   Balance                                                             0.000

!===============================================================================

*DSSAT Cropping System Model Ver. 4.7.5.008 -release  JAN 07, 2021 20:33:40

*RUN  38        : ERiMA DCC1                MZCER047 ETMZbako    1
 MODEL          : MZCER047 - Maize
 EXPERIMENT     : ETMZbako SN MELKSSAL
 DATA PATH      : C:\IRI\Python_Dash\ET_DSS_hist\TEST\
 TREATMENT  1   : ERiMA DCC1                MZCER047
  


!SOIL INORGANIC N BALANCE                         Initial               Final
!                                                Year/Doy            Year/Doy
!                                                1983/165            1983/309
!                                               (kg[N]/ha)          (kg[N]/ha)
! Soil N state variables:
!   Soil NO3                                        39.60              101.51
!   Soil NH4                                         2.43                1.51
!   Soil Urea                                        0.00                0.00
!   Soil N gases                                     0.00                0.15

! N additions:
!   Fertilizer N                                    60.00
!   Mineralized N                                  134.37

! N subtractions:
!   N immobilized                                                        0.00
!   N leached                                                           15.89
!   N loss to tile drainage                                              0.00
!   N Uptake From Soil                                                 111.45
!   NH3 loss                                                             0.00
!   N2O loss                                                             0.94
!   N2 loss                                                              3.15
!   NO loss                                                              1.79

!   Total N balance                                236.40              236.40
!   Balance                                                             0.000

!===============================================================================

*DSSAT Cropping System Model Ver. 4.7.5.008 -release  JAN 07, 2021 20:33:40

*RUN  39        : ERiMA DCC1                MZCER047 ETMZbako    1
 MODEL          : MZCER047 - Maize
 EXPERIMENT     : ETMZbako SN MELKSSAL
 DATA PATH      : C:\IRI\Python_Dash\ET_DSS_hist\TEST\
 TREATMENT  1   : ERiMA DCC1                MZCER047
  


!SOIL INORGANIC N BALANCE                         Initial               Final
!                                                Year/Doy            Year/Doy
!                                                1984/165            1984/308
!                                               (kg[N]/ha)          (kg[N]/ha)
! Soil N state variables:
!   Soil NO3                                        39.60               97.62
!   Soil NH4                                         2.43                1.39
!   Soil Urea                                        0.00                0.00
!   Soil N gases                                     0.00                0.26

! N additions:
!   Fertilizer N                                    60.00
!   Mineralized N                                  129.14

! N subtractions:
!   N immobilized                                                        0.00
!   N leached                                                           26.30
!   N loss to tile drainage                                              0.00
!   N Uptake From Soil                                                  97.32
!   NH3 loss                                                             0.00
!   N2O loss                                                             1.28
!   N2 loss                                                              4.54
!   NO loss                                                              2.48

!   Total N balance                                231.17              231.17
!   Balance                                                            -0.000

!===============================================================================

*DSSAT Cropping System Model Ver. 4.7.5.008 -release  JAN 07, 2021 20:33:40

*RUN  40        : ERiMA DCC1                MZCER047 ETMZbako    1
 MODEL          : MZCER047 - Maize
 EXPERIMENT     : ETMZbako SN MELKSSAL
 DATA PATH      : C:\IRI\Python_Dash\ET_DSS_hist\TEST\
 TREATMENT  1   : ERiMA DCC1                MZCER047
  


!SOIL INORGANIC N BALANCE                         Initial               Final
!                                                Year/Doy            Year/Doy
!                                                1985/165            1985/309
!                                               (kg[N]/ha)          (kg[N]/ha)
! Soil N state variables:
!   Soil NO3                                        39.60               96.06
!   Soil NH4                                         2.43                1.44
!   Soil Urea                                        0.00                0.00
!   Soil N gases                                     0.00                0.14

! N additions:
!   Fertilizer N                                    60.00
!   Mineralized N                                  130.79

! N subtractions:
!   N immobilized                                                        0.00
!   N leached                                                           23.78
!   N loss to tile drainage                                              0.00
!   N Uptake From Soil                                                 107.47
!   NH3 loss                                                             0.00
!   N2O loss                                                             0.58
!   N2 loss                                                              2.05
!   NO loss                                                              1.29

!   Total N balance                                232.82              232.82
!   Balance                                                             0.000

!===============================================================================

*DSSAT Cropping System Model Ver. 4.7.5.008 -release  JAN 07, 2021 20:33:40

[...]

!===============================================================================

*DSSAT Cropping System Model Ver. 4.7.5.008 -release  JAN 07, 2021 20:33:40

*RUN  61        : ERiMA DCC1                MZCER047 ETMZbako    1
 MODEL          : MZCER047 - Maize
 EXPERIMENT     : ETMZbako SN MELKSSAL
 DATA PATH      : C:\IRI\Python_Dash\ET_DSS_hist\TEST\
 TREATMENT  1   : ERiMA DCC1                MZCER047
  


!SOIL INORGANIC N BALANCE                         Initial               Final
!                                                Year/Doy            Year/Doy
!                                                2006/165            2006/303
!                                               (kg[N]/ha)          (kg[N]/ha)
! Soil N state variables:
!   Soil NO3                                        39.60               90.44
!   Soil NH4                                         2.43                1.90
!   Soil Urea                                        0.00                0.00
!   Soil N gases                                     0.00                0.25

! N additions:
!   Fertilizer N                                    60.00
!   Mineralized N                                  132.82

! N subtractions:
!   N immobilized                                                        0.00
!   N leached                                                           27.57
!   N loss to tile drainage                                              0.00
!   N Uptake From Soil                                                 108.82
!   NH3 loss                                                             0.00
!   N2O loss                                                             0.91
!   N2 loss                                                              3.50
!   NO loss                                                              1.45

!   Total N balance                                234.84              234.84
!   Balance                                                            -0.000

!===============================================================================

*DSSAT Cropping System Model Ver. 4.7.5.008 -release  JAN 07, 2021 20:33:40

*RUN  62        : ERiMA DCC1                MZCER047 ETMZbako    1
 MODEL          : MZCER047 - Maize
 EXPERIMENT     : ETMZbako SN MELKSSAL
 DATA PATH      : C:\IRI\Python_Dash\ET_DSS_hist\TEST\
 TREATMENT  1   : ERiMA DCC1                MZCER047
  


!SOIL INORGANIC N BALANCE                         Initial               Final
!                                                Year/Doy            Year/Doy
!                                                2007/165            2007/310
!                                               (kg[N]/ha)          (kg[N]/ha)
! Soil N state variables:
!   Soil NO3                                        39.60              101.17
!   Soil NH4                                         2.43                1.42
!   Soil Urea                                        0.00                0.00
!   Soil N gases                                     0.00                0.22

! N additions:
!   Fertilizer N                                    60.00
!   Mineralized N                                  132.76

! N subtractions:
!   N immobilized                                                        0.00
!   N leached                                                           21.34
!   N loss to tile drainage                                              0.00
!   N Uptake From Soil                                                 105.99
!   NH3 loss                                                             0.00
!   N2O loss                                                             0.88
!   N2 loss                                                              2.37
!   NO loss                                                              1.39

!   Total N balance                                234.78              234.78
!   Balance                                                             0.000

!===============================================================================

*DSSAT Cropping System Model Ver. 4.7.5.008 -release  JAN 07, 2021 20:33:40

*RUN  63        : ERiMA DCC1                MZCER047 ETMZbako    1
 MODEL          : MZCER047 - Maize
 EXPERIMENT     : ETMZbako SN MELKSSAL
 DATA PATH      : C:\IRI\Python_Dash\ET_DSS_hist\TEST\
 TREATMENT  1   : ERiMA DCC1                MZCER047
  


!SOIL INORGANIC N BALANCE                         Initial               Final
!                                                Year/Doy            Year/Doy
!                                                2008/165            2008/305
!                                               (kg[N]/ha)          (kg[N]/ha)
! Soil N state variables:
!   Soil NO3                                        39.60              110.01
!   Soil NH4                                         2.43                1.80
!   Soil Urea                                        0.00                0.00
!   Soil N gases                                     0.00                0.13

! N additions:
!   Fertilizer N                                    60.00
!   Mineralized N                                  131.74

! N subtractions:
!   N immobilized                                                        0.00
!   N leached                                                           18.55
!   N loss to tile drainage                                              0.00
!   N Uptake From Soil                                                  98.58
!   NH3 loss                                                             0.00
!   N2O loss                                                             0.79
!   N2 loss                                                              2.52
!   NO loss                                                              1.39

!   Total N balance                                233.77              233.77
!   Balance                                                            -0.000

!===============================================================================

*DSSAT Cropping System Model Ver. 4.7.5.008 -release  JAN 07, 2021 20:33:40

*RUN  64        : ERiMA DCC1                MZCER047 ETMZbako    1
 MODEL          : MZCER047 - Maize
 EXPERIMENT     : ETMZbako SN MELKSSAL
 DATA PATH      : C:\IRI\Python_Dash\ET_DSS_hist\TEST\
 TREATMENT  1   : ERiMA DCC1                MZCER047
  


!SOIL INORGANIC N BALANCE                         Initial               Final
!                                                Year/Doy            Year/Doy
!                                                2009/165            2009/318
!                                               (kg[N]/ha)          (kg[N]/ha)
! Soil N state variables:
!   Soil NO3                                        39.60              107.35
!   Soil NH4                                         2.43                1.53
!   Soil Urea                                        0.00                0.00
!   Soil N gases                                     0.00                0.12

! N additions:
!   Fertilizer N                                    60.00
!   Mineralized N                                  145.19

! N subtractions:
!   N immobilized                                                        0.00
!   N leached                                                           21.94
!   N loss to tile drainage                                              0.00
!   N Uptake From Soil                                                 111.81
!   NH3 loss                                                             0.00
!   N2O loss                                                             0.79
!   N2 loss                                                              2.11
!   NO loss                                                              1.56

!   Total N balance                                247.22              247.21
!   Balance                                                            -0.000

!===============================================================================

*DSSAT Cropping System Model Ver. 4.7.5.008 -release  JAN 07, 2021 20:33:40

*RUN  65        : ERiMA DCC1                MZCER047 ETMZbako    1
 MODEL          : MZCER047 - Maize
 EXPERIMENT     : ETMZbako SN MELKSSAL
 DATA PATH      : C:\IRI\Python_Dash\ET_DSS_hist\TEST\
 TREATMENT  1   : ERiMA DCC1                MZCER047
  


!SOIL INORGANIC N BALANCE                         Initial               Final
!                                                Year/Doy            Year/Doy
!                                                2010/165            2010/307
!                                               (kg[N]/ha)          (kg[N]/ha)
! Soil N state variables:
!   Soil NO3                                        39.60               93.53
!   Soil NH4                                         2.43                1.42
!   Soil Urea                                        0.00                0.00
!   Soil N gases                                     0.00                0.15

! N additions:
!   Fertilizer N                                    60.00
!   Mineralized N                                  132.65

! N subtractions:
!   N immobilized                                                        0.00
!   N leached                                                           12.97
!   N loss to tile drainage                                              0.00
!   N Uptake From Soil                                                 121.26
!   NH3 loss                                                             0.00
!   N2O loss                                                             0.92
!   N2 loss                                                              2.68
!   NO loss                                                              1.75

!   Total N balance                                234.68              234.68
!   Balance                                                             0.000

!===============================================================================

*DSSAT Cropping System Model Ver. 4.7.5.008 -release  JAN 07, 2021 20:33:40

*RUN  66        : ERiMA DCC1                MZCER047 ETMZbako    1
 MODEL          : MZCER047 - Maize
 EXPERIMENT     : ETMZbako SN MELKSSAL
 DATA PATH      : C:\IRI\Python_Dash\ET_DSS_hist\TEST\
 TREATMENT  1   : ERiMA DCC1                MZCER047
  


!SOIL INORGANIC N BALANCE                         Initial               Final
!                                                Year/Doy            Year/Doy
!                                                2011/165            2011/306
!                                               (kg[N]/ha)          (kg[N]/ha)
! Soil N state variables:
!   Soil NO3                                        39.60               94.25
!   Soil NH4                                         2.43                1.50
!   Soil Urea                                        0.00                0.00
!   Soil N gases                                     0.00                0.17

! N additions:
!   Fertilizer N                                    60.00
!   Mineralized N                                  131.53

! N subtractions:
!   N immobilized                                                        0.00
!   N leached                                                           27.76
!   N loss to tile drainage                                              0.00
!   N Uptake From Soil                                                 104.51
!   NH3 loss                                                             0.00
!   N2O loss                                                             0.98
!   N2 loss                                                              2.52
!   NO loss                                                              1.87

!   Total N balance                                233.56              233.56
!   Balance                                                             0.000

!===============================================================================

*DSSAT Cropping System Model Ver. 4.7.5.008 -release  JAN 07, 2021 20:33:40

*RUN  67        : ERiMA DCC1                MZCER047 ETMZbako    1
 MODEL          : MZCER047 - Maize
 EXPERIMENT     : ETMZbako SN MELKSSAL
 DATA PATH      : C:\IRI\Python_Dash\ET_DSS_hist\TEST\
 TREATMENT  1   : ERiMA DCC1                MZCER047
  


!SOIL INORGANIC N BALANCE                         Initial               Final
!                                                Year/Doy            Year/Doy
!                                                2012/165            2012/302
!                                               (kg[N]/ha)          (kg[N]/ha)
! Soil N state variables:
!   Soil NO3                                        39.60               88.01
!   Soil NH4                                         2.43                1.41
!   Soil Urea                                        0.00                0.00
!   Soil N gases                                     0.00                0.14

! N additions:
!   Fertilizer N                                    60.00
!   Mineralized N                                  129.42

! N subtractions:
!   N immobilized                                                        0.00
!   N leached                                                           31.74
!   N loss to tile drainage                                              0.00
!   N Uptake From Soil                                                 105.30
!   NH3 loss                                                             0.00
!   N2O loss                                                             0.81
!   N2 loss                                                              2.46
!   NO loss                                                              1.59

!   Total N balance                                231.45              231.45
!   Balance                                                             0.000

!===============================================================================

*DSSAT Cropping System Model Ver. 4.7.5.008 -release  JAN 07, 2021 20:33:40

*RUN  68        : ERiMA DCC1                MZCER047 ETMZbako    1
 MODEL          : MZCER047 - Maize
 EXPERIMENT     : ETMZbako SN MELKSSAL
 DATA PATH      : C:\IRI\Python_Dash\ET_DSS_hist\TEST\
 TREATMENT  1   : ERiMA DCC1                MZCER047
  


!SOIL INORGANIC N BALANCE                         Initial               Final
!                                                Year/Doy            Year/Doy
!                                                2013/165            2013/311
!                                               (kg[N]/ha)          (kg[N]/ha)
! Soil N state variables:
!   Soil NO3                                        39.60              104.86
!   Soil NH4                                         2.43                1.59
!   Soil Urea                                        0.00                0.00
!   Soil N gases                                     0.00                0.12

! N additions:
!   Fertilizer N                                    60.00
!   Mineralized N                                  137.12

! N subtractions:
!   N immobilized                                                        0.00
!   N leached                                                           20.58
!   N loss to tile drainage                                              0.00
!   N Uptake From Soil                                                 106.95
!   NH3 loss                                                             0.00
!   N2O loss                                                             0.86
!   N2 loss                                                              2.53
!   NO loss                                                              1.65

!   Total N balance                                239.15              239.15
!   Balance                                                             0.000

!===============================================================================

*DSSAT Cropping System Model Ver. 4.7.5.008 -release  JAN 07, 2021 20:33:40

*RUN  69        : ERiMA DCC1                MZCER047 ETMZbako    1
 MODEL          : MZCER047 - Maize
 EXPERIMENT     : ETMZbako SN MELKSSAL
 DATA PATH      : C:\IRI\Python_Dash\ET_DSS_hist\TEST\
 TREATMENT  1   : ERiMA DCC1                MZCER047
  


!SOIL INORGANIC N BALANCE                         Initial               Final
!                                                Year/Doy            Year/Doy
!                                                2014/165            2014/305
!                                               (kg[N]/ha)          (kg[N]/ha)
! Soil N state variables:
!   Soil NO3                                        39.60               92.60
!   Soil NH4                                         2.43                1.77
!   Soil Urea                                        0.00                0.00
!   Soil N gases                                     0.00                0.25

! N additions:
!   Fertilizer N                                    60.00
!   Mineralized N                                  133.78

! N subtractions:
!   N immobilized                                                        0.00
!   N leached                                                           21.78
!   N loss to tile drainage                                              0.00
!   N Uptake From Soil                                                 117.53
!   NH3 loss                                                             0.00
!   N2O loss                                                             0.30
!   N2 loss                                                              0.64
!   NO loss                                                              0.93

!   Total N balance                                235.81              235.81
!   Balance                                                             0.000

!===============================================================================

*DSSAT Cropping System Model Ver. 4.7.5.008 -release  JAN 07, 2021 20:33:40

*RUN  70        : ERiMA DCC1                MZCER047 ETMZbako    1
 MODEL          : MZCER047 - Maize
 EXPERIMENT     : ETMZbako SN MELKSSAL
 DATA PATH      : C:\IRI\Python_Dash\ET_DSS_hist\TEST\
 TREATMENT  1   : ERiMA DCC1                MZCER047
  


!SOIL INORGANIC N BALANCE                         Initial               Final
!                                                Year/Doy            Year/Doy
!                                                2015/165            2015/305
!                                               (kg[N]/ha)          (kg[N]/ha)
! Soil N state variables:
!   Soil NO3                                        39.60               97.96
!   Soil NH4                                         2.43                1.52
!   Soil Urea                                        0.00                0.00
!   Soil N gases                                     0.00                0.13

! N additions:
!   Fertilizer N                                    60.00
!   Mineralized N                                  133.35

! N subtractions:
!   N immobilized                                                        0.00
!   N leached                                                           16.03
!   N loss to tile drainage                                              0.00
!   N Uptake From Soil                                                 115.56
!   NH3 loss                                                             0.00
!   N2O loss                                                             0.72
!   N2 loss                                                              1.96
!   NO loss                                                              1.50

!   Total N balance                                235.37              235.37
!   Balance                                                             0.000
