*WATER BALANCE OUTPUT FILE

*DSSAT Cropping System Model Ver. 4.7.5.008 -release  JAN 07, 2021 20:33:24

*RUN   1        : ERiMA DCC1                MZCER047 ETMZmelk    1
 MODEL          : MZCER047 - Maize
 EXPERIMENT     : ETMZmelk SN MELKSSAL
 DATA PATH      : C:\IRI\Python_Dash\ET_DSS_hist\TEST\
 TREATMENT  1   : ERiMA DCC1                MZCER047
  

!     WATER BALANCE PARAMETERS
!     ========================                 --mm--

!     Soil H20 (start) on Year/day 1981/165    586.18
!     Soil H20 (final) on Year/day 1981/272    571.78
!     Effective Irrigation                       0.00
!     Precipitation                            477.70
!     Water added with new mulch                 0.00
!     Drainage                                  71.99
!     Tiledrain flow                             0.00
!     Runoff                                    31.34
!     Mulch evaporation                          0.00
!     Soil Evaporation                         165.30
!     Transpiration                            223.45
!     Potential ET                             496.99

!     Initial mulch water content                0.00
!     Final mulch water content                  0.00

!     Final Balance                             0.010


*DSSAT Cropping System Model Ver. 4.7.5.008 -release  JAN 07, 2021 20:33:24

*RUN   2        : ERiMA DCC1                MZCER047 ETMZmelk    1
 MODEL          : MZCER047 - Maize
 EXPERIMENT     : ETMZmelk SN MELKSSAL
 DATA PATH      : C:\IRI\Python_Dash\ET_DSS_hist\TEST\
 TREATMENT  1   : ERiMA DCC1                MZCER047
  

!     WATER BALANCE PARAMETERS
!     ========================                 --mm--

!     Soil H20 (start) on Year/day 1982/165    586.18
!     Soil H20 (final) on Year/day 1982/272    532.35
!     Effective Irrigation                       0.00
!     Precipitation                            387.20
!     Water added with new mulch                 0.00
!     Drainage                                  39.23
!     Tiledrain flow                             0.00
!     Runoff                                    26.50
!     Mulch evaporation                          0.00
!     Soil Evaporation                         160.89
!     Transpiration                            214.39
!     Potential ET                             510.46

!     Initial mulch water content                0.00
!     Final mulch water content                  0.00

!     Final Balance                             0.005


*DSSAT Cropping System Model Ver. 4.7.5.008 -release  JAN 07, 2021 20:33:24

*RUN   3        : ERiMA DCC1                MZCER047 ETMZmelk    1
 MODEL          : MZCER047 - Maize
 EXPERIMENT     : ETMZmelk SN MELKSSAL
 DATA PATH      : C:\IRI\Python_Dash\ET_DSS_hist\TEST\
 TREATMENT  1   : ERiMA DCC1                MZCER047
  

!     WATER BALANCE PARAMETERS
!     ========================                 --mm--

!     Soil H20 (start) on Year/day 1983/165    586.18
!     Soil H20 (final) on Year/day 1983/267    579.93
!     Effective Irrigation                       0.00
!     Precipitation                            447.80
!     Water added with new mulch                 0.00
!     Drainage                                  46.25
!     Tiledrain flow                             0.00
!     Runoff                                    20.12
!     Mulch evaporation                          0.00
!     Soil Evaporation                         172.29
!     Transpiration                            215.38
!     Potential ET                             478.85

!     Initial mulch water content                0.00
!     Final mulch water content                  0.00

!     Final Balance                             0.007


*DSSAT Cropping System Model Ver. 4.7.5.008 -release  JAN 07, 2021 20:33:24

*RUN   4        : ERiMA DCC1                MZCER047 ETMZmelk    1
 MODEL          : MZCER047 - Maize
 EXPERIMENT     : ETMZmelk SN MELKSSAL
 DATA PATH      : C:\IRI\Python_Dash\ET_DSS_hist\TEST\
 TREATMENT  1   : ERiMA DCC1                MZCER047
  

!     WATER BALANCE PARAMETERS
!     ========================                 --mm--

!     Soil H20 (start) on Year/day 1984/165    586.18
!     Soil H20 (final) on Year/day 1984/272    505.90
!     Effective Irrigation                       0.00
!     Precipitation                            328.60
!     Water added with new mulch                 0.00
!     Drainage                                  16.34
!     Tiledrain flow                             0.00
!     Runoff                                     6.32
!     Mulch evaporation                          0.00
!     Soil Evaporation                         147.24
!     Transpiration                            238.96
!     Potential ET                             525.82

!     Initial mulch water content                0.00
!     Final mulch water content                  0.00

!     Final Balance                             0.014


*DSSAT Cropping System Model Ver. 4.7.5.008 -release  JAN 07, 2021 20:33:24

*RUN   5        : ERiMA DCC1                MZCER047 ETMZmelk    1
 MODEL          : MZCER047 - Maize
 EXPERIMENT     : ETMZmelk SN MELKSSAL
 DATA PATH      : C:\IRI\Python_Dash\ET_DSS_hist\TEST\
 TREATMENT  1   : ERiMA DCC1                MZCER047
  

!     WATER BALANCE PARAMETERS
!     ========================                 --mm--

!     Soil H20 (start) on Year/day 1985/165    586.18
!     Soil H20 (final) on Year/day 1985/277    526.34
!     Effective Irrigation                       0.00
!     Precipitation                            602.20
!     Water added with new mulch                 0.00
!     Drainage                                 162.86
!     Tiledrain flow                             0.00
!     Runoff                                    52.34
!     Mulch evaporation                          0.00
!     Soil Evaporation                         205.86
!     Transpiration                            240.98
!     Potential ET                             527.92

!     Initial mulch water content                0.00
!     Final mulch water content                  0.00

!     Final Balance                             0.008


*DSSAT Cropping System Model Ver. 4.7.5.008 -release  JAN 07, 2021 20:33:24

*RUN   6        : ERiMA DCC1                MZCER047 ETMZmelk    1
 MODEL          : MZCER047 - Maize
 EXPERIMENT     : ETMZmelk SN MELKSSAL
 DATA PATH      : C:\IRI\Python_Dash\ET_DSS_hist\TEST\
 TREATMENT  1   : ERiMA DCC1                MZCER047
  

!     WATER BALANCE PARAMETERS
!     ========================                 --mm--

!     Soil H20 (start) on Year/day 1986/165    586.18
!     Soil H20 (final) on Year/day 1986/276    503.17
!     Effective Irrigation                       0.00
!     Precipitation                            378.90
!     Water added with new mulch                 0.00
!     Drainage                                  12.59
!     Tiledrain flow                             0.00
!     Runoff                                    18.64
!     Mulch evaporation                          0.00
!     Soil Evaporation                         191.78
!     Transpiration                            238.90
!     Potential ET                             500.90

!     Initial mulch water content                0.00
!     Final mulch water content                  0.00

!     Final Balance                             0.010


*DSSAT Cropping System Model Ver. 4.7.5.008 -release  JAN 07, 2021 20:33:24

*RUN   7        : ERiMA DCC1                MZCER047 ETMZmelk    1
 MODEL          : MZCER047 - Maize
 EXPERIMENT     : ETMZmelk SN MELKSSAL
 DATA PATH      : C:\IRI\Python_Dash\ET_DSS_hist\TEST\
 TREATMENT  1   : ERiMA DCC1                MZCER047
  

!     WATER BALANCE PARAMETERS
!     ========================                 --mm--

!     Soil H20 (start) on Year/day 1987/165    586.18
!     Soil H20 (final) on Year/day 1987/264    537.31
!     Effective Irrigation                       0.00
!     Precipitation                            252.80
!     Water added with new mulch                 0.00
!     Drainage                                  17.62
!     Tiledrain flow                             0.00
!     Runoff                                    30.19
!     Mulch evaporation                          0.00
!     Soil Evaporation                         115.44
!     Transpiration                            138.40
!     Potential ET                             491.53

!     Initial mulch water content                0.00
!     Final mulch water content                  0.00

!     Final Balance                             0.019


*DSSAT Cropping System Model Ver. 4.7.5.008 -release  JAN 07, 2021 20:33:24

*RUN   8        : ERiMA DCC1                MZCER047 ETMZmelk    1
 MODEL          : MZCER047 - Maize
 EXPERIMENT     : ETMZmelk SN MELKSSAL
 DATA PATH      : C:\IRI\Python_Dash\ET_DSS_hist\TEST\
 TREATMENT  1   : ERiMA DCC1                MZCER047
  

!     WATER BALANCE PARAMETERS
!     ========================                 --mm--

!     Soil H20 (start) on Year/day 1988/165    586.18
!     Soil H20 (final) on Year/day 1988/270    581.74
!     Effective Irrigation                       0.00
!     Precipitation                            544.20
!     Water added with new mulch                 0.00
!     Drainage                                 138.22
!     Tiledrain flow                             0.00
!     Runoff                                    45.96
!     Mulch evaporation                          0.00
!     Soil Evaporation                         180.19
!     Transpiration                            184.25
!     Potential ET                             454.56

!     Initial mulch water content                0.00
!     Final mulch water content                  0.00

!     Final Balance                             0.009


*DSSAT Cropping System Model Ver. 4.7.5.008 -release  JAN 07, 2021 20:33:24

*RUN   9        : ERiMA DCC1                MZCER047 ETMZmelk    1
 MODEL          : MZCER047 - Maize
 EXPERIMENT     : ETMZmelk SN MELKSSAL
 DATA PATH      : C:\IRI\Python_Dash\ET_DSS_hist\TEST\
 TREATMENT  1   : ERiMA DCC1                MZCER047
  

!     WATER BALANCE PARAMETERS
!     ========================                 --mm--

!     Soil H20 (start) on Year/day 1989/165    586.18
!     Soil H20 (final) on Year/day 1989/270    576.11
!     Effective Irrigation                       0.00
!     Precipitation                            531.20
!     Water added with new mulch                 0.00
!     Drainage                                 110.27
!     Tiledrain flow                             0.00
!     Runoff                                    38.27
!     Mulch evaporation                          0.00
!     Soil Evaporation                         169.80
!     Transpiration                            222.93
!     Potential ET                             502.87

!     Initial mulch water content                0.00
!     Final mulch water content                  0.00

!     Final Balance                             0.009


*DSSAT Cropping System Model Ver. 4.7.5.008 -release  JAN 07, 2021 20:33:24

*RUN  10        : ERiMA DCC1                MZCER047 ETMZmelk    1
 MODEL          : MZCER047 - Maize
 EXPERIMENT     : ETMZmelk SN MELKSSAL
 DATA PATH      : C:\IRI\Python_Dash\ET_DSS_hist\TEST\
 TREATMENT  1   : ERiMA DCC1                MZCER047
  

!     WATER BALANCE PARAMETERS
!     ========================                 --mm--

!     Soil H20 (start) on Year/day 1990/165    586.18
!     Soil H20 (final) on Year/day 1990/270    560.59
!     Effective Irrigation                       0.00
!     Precipitation                            440.40
!     Water added with new mulch                 0.00
!     Drainage                                  27.24
!     Tiledrain flow                             0.00
!     Runoff                                    56.82
!     Mulch evaporation                          0.00
!     Soil Evaporation                         143.89
!     Transpiration                            238.03
!     Potential ET                             502.19

!     Initial mulch water content                0.00
!     Final mulch water content                  0.00

!     Final Balance                             0.010


*DSSAT Cropping System Model Ver. 4.7.5.008 -release  JAN 07, 2021 20:33:24

*RUN  11        : ERiMA DCC1                MZCER047 ETMZmelk    1
 MODEL          : MZCER047 - Maize
 EXPERIMENT     : ETMZmelk SN MELKSSAL
 DATA PATH      : C:\IRI\Python_Dash\ET_DSS_hist\TEST\
 TREATMENT  1   : ERiMA DCC1                MZCER047
  

!     WATER BALANCE PARAMETERS
!     ========================                 --mm--

!     Soil H20 (start) on Year/day 1991/165    586.18
!     Soil H20 (final) on Year/day 1991/269    531.34
!     Effective Irrigation                       0.00
!     Precipitation                            395.40
!     Water added with new mulch                 0.00
!     Drainage                                  34.08
!     Tiledrain flow                             0.00
!     Runoff                                    32.29
!     Mulch evaporation                          0.00
!     Soil Evaporation                         142.18
!     Transpiration                            241.68
!     Potential ET                             511.89

!     Initial mulch water content                0.00
!     Final mulch water content                  0.00

!     Final Balance                             0.011


*DSSAT Cropping System Model Ver. 4.7.5.008 -release  JAN 07, 2021 20:33:24

*RUN  12        : ERiMA DCC1                MZCER047 ETMZmelk    1
 MODEL          : MZCER047 - Maize
 EXPERIMENT     : ETMZmelk SN MELKSSAL
 DATA PATH      : C:\IRI\Python_Dash\ET_DSS_hist\TEST\
 TREATMENT  1   : ERiMA DCC1                MZCER047
  

!     WATER BALANCE PARAMETERS
!     ========================                 --mm--

!     Soil H20 (start) on Year/day 1992/165    586.18
!     Soil H20 (final) on Year/day 1992/271    580.18
!     Effective Irrigation                       0.00
!     Precipitation                            610.40
!     Water added with new mulch                 0.00
!     Drainage                                 131.55
!     Tiledrain flow                             0.00
!     Runoff                                    69.32
!     Mulch evaporation                          0.00
!     Soil Evaporation                         182.39
!     Transpiration                            233.12
!     Potential ET                             487.84

!     Initial mulch water content                0.00
!     Final mulch water content                  0.00

!     Final Balance                             0.010


*DSSAT Cropping System Model Ver. 4.7.5.008 -release  JAN 07, 2021 20:33:24

*RUN  13        : ERiMA DCC1                MZCER047 ETMZmelk    1
 MODEL          : MZCER047 - Maize
 EXPERIMENT     : ETMZmelk SN MELKSSAL
 DATA PATH      : C:\IRI\Python_Dash\ET_DSS_hist\TEST\
 TREATMENT  1   : ERiMA DCC1                MZCER047
  

!     WATER BALANCE PARAMETERS
!     ========================                 --mm--

!     Soil H20 (start) on Year/day 1993/165    586.18
!     Soil H20 (final) on Year/day 1993/272    566.56
!     Effective Irrigation                       0.00
!     Precipitation                            531.80
!     Water added with new mulch                 0.00
!     Drainage                                  92.57
!     Tiledrain flow                             0.00
!     Runoff                                    63.66
!     Mulch evaporation                          0.00
!     Soil Evaporation                         162.16
!     Transpiration                            233.02
!     Potential ET                             509.77

!     Initial mulch water content                0.00
!     Final mulch water content                  0.00

!     Final Balance                             0.010


*DSSAT Cropping System Model Ver. 4.7.5.008 -release  JAN 07, 2021 20:33:24

*RUN  14        : ERiMA DCC1                MZCER047 ETMZmelk    1
 MODEL          : MZCER047 - Maize
 EXPERIMENT     : ETMZmelk SN MELKSSAL
 DATA PATH      : C:\IRI\Python_Dash\ET_DSS_hist\TEST\
 TREATMENT  1   : ERiMA DCC1                MZCER047
  

!     WATER BALANCE PARAMETERS
!     ========================                 --mm--

!     Soil H20 (start) on Year/day 1994/165    586.18
!     Soil H20 (final) on Year/day 1994/271    546.90
!     Effective Irrigation                       0.00
!     Precipitation                            478.90
!     Water added with new mulch                 0.00
!     Drainage                                  75.94
!     Tiledrain flow                             0.00
!     Runoff                                    39.50
!     Mulch evaporation                          0.00
!     Soil Evaporation                         170.78
!     Transpiration                            231.95
!     Potential ET                             493.00

!     Initial mulch water content                0.00
!     Final mulch water content                  0.00

!     Final Balance                             0.013


*DSSAT Cropping System Model Ver. 4.7.5.008 -release  JAN 07, 2021 20:33:24

*RUN  15        : ERiMA DCC1                MZCER047 ETMZmelk    1
 MODEL          : MZCER047 - Maize
 EXPERIMENT     : ETMZmelk SN MELKSSAL
 DATA PATH      : C:\IRI\Python_Dash\ET_DSS_hist\TEST\
 TREATMENT  1   : ERiMA DCC1                MZCER047
  

!     WATER BALANCE PARAMETERS
!     ========================                 --mm--

!     Soil H20 (start) on Year/day 1995/165    586.18
!     Soil H20 (final) on Year/day 1995/269    561.13
!     Effective Irrigation                       0.00
!     Precipitation                            469.70
!     Water added with new mulch                 0.00
!     Drainage                                  71.65
!     Tiledrain flow                             0.00
!     Runoff                                    36.21
!     Mulch evaporation                          0.00
!     Soil Evaporation                         162.36
!     Transpiration                            224.52
!     Potential ET                             467.87

!     Initial mulch water content                0.00
!     Final mulch water content                  0.00

!     Final Balance                             0.006


*DSSAT Cropping System Model Ver. 4.7.5.008 -release  JAN 07, 2021 20:33:24

*RUN  16        : ERiMA DCC1                MZCER047 ETMZmelk    1
 MODEL          : MZCER047 - Maize
 EXPERIMENT     : ETMZmelk SN MELKSSAL
 DATA PATH      : C:\IRI\Python_Dash\ET_DSS_hist\TEST\
 TREATMENT  1   : ERiMA DCC1                MZCER047
  

!     WATER BALANCE PARAMETERS
!     ========================                 --mm--

!     Soil H20 (start) on Year/day 1996/165    586.18
!     Soil H20 (final) on Year/day 1996/273    537.30
!     Effective Irrigation                       0.00
!     Precipitation                            451.10
!     Water added with new mulch                 0.00
!     Drainage                                  76.72
!     Tiledrain flow                             0.00
!     Runoff                                    35.58
!     Mulch evaporation                          0.00
!     Soil Evaporation                         154.65
!     Transpiration                            233.02
!     Potential ET                             484.10

!     Initial mulch water content                0.00
!     Final mulch water content                  0.00

!     Final Balance                             0.011


*DSSAT Cropping System Model Ver. 4.7.5.008 -release  JAN 07, 2021 20:33:24

*RUN  17        : ERiMA DCC1                MZCER047 ETMZmelk    1
 MODEL          : MZCER047 - Maize
 EXPERIMENT     : ETMZmelk SN MELKSSAL
 DATA PATH      : C:\IRI\Python_Dash\ET_DSS_hist\TEST\
 TREATMENT  1   : ERiMA DCC1                MZCER047
  

!     WATER BALANCE PARAMETERS
!     ========================                 --mm--

!     Soil H20 (start) on Year/day 1997/165    586.18
!     Soil H20 (final) on Year/day 1997/267    522.01
!     Effective Irrigation                       0.00
!     Precipitation                            519.20
!     Water added with new mulch                 0.00
!     Drainage                                  78.92
!     Tiledrain flow                             0.00
!     Runoff                                    57.26
!     Mulch evaporation                          0.00
!     Soil Evaporation                         216.11
!     Transpiration                            231.07
!     Potential ET                             499.13

!     Initial mulch water content                0.00
!     Final mulch water content                  0.00

!     Final Balance                             0.003


*DSSAT Cropping System Model Ver. 4.7.5.008 -release  JAN 07, 2021 20:33:24

*RUN  18        : ERiMA DCC1                MZCER047 ETMZmelk    1
 MODEL          : MZCER047 - Maize
 EXPERIMENT     : ETMZmelk SN MELKSSAL
 DATA PATH      : C:\IRI\Python_Dash\ET_DSS_hist\TEST\
 TREATMENT  1   : ERiMA DCC1                MZCER047
  

!     WATER BALANCE PARAMETERS
!     ========================                 --mm--

!     Soil H20 (start) on Year/day 1998/165    586.18
!     Soil H20 (final) on Year/day 1998/270    580.22
!     Effective Irrigation                       0.00
!     Precipitation                            617.20
!     Water added with new mulch                 0.00
!     Drainage                                 183.09
!     Tiledrain flow                             0.00
!     Runoff                                    62.45
!     Mulch evaporation                          0.00
!     Soil Evaporation                         152.08
!     Transpiration                            225.53
!     Potential ET                             462.03

!     Initial mulch water content                0.00
!     Final mulch water content                  0.00

!     Final Balance                             0.005


*DSSAT Cropping System Model Ver. 4.7.5.008 -release  JAN 07, 2021 20:33:24

*RUN  19        : ERiMA DCC1                MZCER047 ETMZmelk    1
 MODEL          : MZCER047 - Maize
 EXPERIMENT     : ETMZmelk SN MELKSSAL
 DATA PATH      : C:\IRI\Python_Dash\ET_DSS_hist\TEST\
 TREATMENT  1   : ERiMA DCC1                MZCER047
  

!     WATER BALANCE PARAMETERS
!     ========================                 --mm--

!     Soil H20 (start) on Year/day 1999/165    586.18
!     Soil H20 (final) on Year/day 1999/274    521.43
!     Effective Irrigation                       0.00
!     Precipitation                            558.80
!     Water added with new mulch                 0.00
!     Drainage                                 147.17
!     Tiledrain flow                             0.00
!     Runoff                                    73.12
!     Mulch evaporation                          0.00
!     Soil Evaporation                         177.54
!     Transpiration                            225.69
!     Potential ET                             495.18

!     Initial mulch water content                0.00
!     Final mulch water content                  0.00

!     Final Balance                             0.015


*DSSAT Cropping System Model Ver. 4.7.5.008 -release  JAN 07, 2021 20:33:24

*RUN  20        : ERiMA DCC1                MZCER047 ETMZmelk    1
 MODEL          : MZCER047 - Maize
 EXPERIMENT     : ETMZmelk SN MELKSSAL
 DATA PATH      : C:\IRI\Python_Dash\ET_DSS_hist\TEST\
 TREATMENT  1   : ERiMA DCC1                MZCER047
  

!     WATER BALANCE PARAMETERS
!     ========================                 --mm--

!     Soil H20 (start) on Year/day 2000/165    586.18
!     Soil H20 (final) on Year/day 2000/271    589.60
!     Effective Irrigation                       0.00
!     Precipitation                            569.80
!     Water added with new mulch                 0.00
!     Drainage                                 125.03
!     Tiledrain flow                             0.00
!     Runoff                                    60.69
!     Mulch evaporation                          0.00
!     Soil Evaporation                         167.78
!     Transpiration                            212.86
!     Potential ET                             470.74

!     Initial mulch water content                0.00
!     Final mulch water content                  0.00

!     Final Balance                             0.010


*DSSAT Cropping System Model Ver. 4.7.5.008 -release  JAN 07, 2021 20:33:24

*RUN  21        : ERiMA DCC1                MZCER047 ETMZmelk    1
 MODEL          : MZCER047 - Maize
 EXPERIMENT     : ETMZmelk SN MELKSSAL
 DATA PATH      : C:\IRI\Python_Dash\ET_DSS_hist\TEST\
 TREATMENT  1   : ERiMA DCC1                MZCER047
  

!     WATER BALANCE PARAMETERS
!     ========================                 --mm--

!     Soil H20 (start) on Year/day 2001/165    586.18
!     Soil H20 (final) on Year/day 2001/271    535.27
!     Effective Irrigation                       0.00
!     Precipitation                            569.20
!     Water added with new mulch                 0.00
!     Drainage                                 148.58
!     Tiledrain flow                             0.00
!     Runoff                                    72.79
!     Mulch evaporation                          0.00
!     Soil Evaporation                         166.58
!     Transpiration                            232.16
!     Potential ET                             486.11

!     Initial mulch water content                0.00
!     Final mulch water content                  0.00

!     Final Balance                             0.009


*DSSAT Cropping System Model Ver. 4.7.5.008 -release  JAN 07, 2021 20:33:24

*RUN  22        : ERiMA DCC1                MZCER047 ETMZmelk    1
 MODEL          : MZCER047 - Maize
 EXPERIMENT     : ETMZmelk SN MELKSSAL
 DATA PATH      : C:\IRI\Python_Dash\ET_DSS_hist\TEST\
 TREATMENT  1   : ERiMA DCC1                MZCER047
  

!     WATER BALANCE PARAMETERS
!     ========================                 --mm--

!     Soil H20 (start) on Year/day 2002/165    586.18
!     Soil H20 (final) on Year/day 2002/267    570.55
!     Effective Irrigation                       0.00
!     Precipitation                            350.00
!     Water added with new mulch                 0.00
!     Drainage                                  55.19
!     Tiledrain flow                             0.00
!     Runoff                                    34.81
!     Mulch evaporation                          0.00
!     Soil Evaporation                         156.97
!     Transpiration                            118.65
!     Potential ET                             495.63

!     Initial mulch water content                0.00
!     Final mulch water content                  0.00

!     Final Balance                             0.012


*DSSAT Cropping System Model Ver. 4.7.5.008 -release  JAN 07, 2021 20:33:24

*RUN  23        : ERiMA DCC1                MZCER047 ETMZmelk    1
 MODEL          : MZCER047 - Maize
 EXPERIMENT     : ETMZmelk SN MELKSSAL
 DATA PATH      : C:\IRI\Python_Dash\ET_DSS_hist\TEST\
 TREATMENT  1   : ERiMA DCC1                MZCER047
  

!     WATER BALANCE PARAMETERS
!     ========================                 --mm--

!     Soil H20 (start) on Year/day 2003/165    586.18
!     Soil H20 (final) on Year/day 2003/269    573.21
!     Effective Irrigation                       0.00
!     Precipitation                            539.60
!     Water added with new mulch                 0.00
!     Drainage                                 124.88
!     Tiledrain flow                             0.00
!     Runoff                                    41.95
!     Mulch evaporation                          0.00
!     Soil Evaporation                         188.17
!     Transpiration                            197.56
!     Potential ET                             445.01

!     Initial mulch water content                0.00
!     Final mulch water content                  0.00

!     Final Balance                             0.006


*DSSAT Cropping System Model Ver. 4.7.5.008 -release  JAN 07, 2021 20:33:24

*RUN  24        : ERiMA DCC1                MZCER047 ETMZmelk    1
 MODEL          : MZCER047 - Maize
 EXPERIMENT     : ETMZmelk SN MELKSSAL
 DATA PATH      : C:\IRI\Python_Dash\ET_DSS_hist\TEST\
 TREATMENT  1   : ERiMA DCC1                MZCER047
  

!     WATER BALANCE PARAMETERS
!     ========================                 --mm--

!     Soil H20 (start) on Year/day 2004/165    586.18
!     Soil H20 (final) on Year/day 2004/269    548.25
!     Effective Irrigation                       0.00
!     Precipitation                            500.80
!     Water added with new mulch                 0.00
!     Drainage                                  99.79
!     Tiledrain flow                             0.00
!     Runoff                                    82.17
!     Mulch evaporation                          0.00
!     Soil Evaporation                         138.01
!     Transpiration                            218.74
!     Potential ET                             474.43

!     Initial mulch water content                0.00
!     Final mulch water content                  0.00

!     Final Balance                             0.012


*DSSAT Cropping System Model Ver. 4.7.5.008 -release  JAN 07, 2021 20:33:24

*RUN  25        : ERiMA DCC1                MZCER047 ETMZmelk    1
 MODEL          : MZCER047 - Maize
 EXPERIMENT     : ETMZmelk SN MELKSSAL
 DATA PATH      : C:\IRI\Python_Dash\ET_DSS_hist\TEST\
 TREATMENT  1   : ERiMA DCC1                MZCER047
  

!     WATER BALANCE PARAMETERS
!     ========================                 --mm--

!     Soil H20 (start) on Year/day 2005/165    586.18
!     Soil H20 (final) on Year/day 2005/269    534.77
!     Effective Irrigation                       0.00
!     Precipitation                            418.80
!     Water added with new mulch                 0.00
!     Drainage                                  60.11
!     Tiledrain flow                             0.00
!     Runoff                                    42.83
!     Mulch evaporation                          0.00
!     Soil Evaporation                         159.04
!     Transpiration                            208.22
!     Potential ET                             469.18

!     Initial mulch water content                0.00
!     Final mulch water content                  0.00

!     Final Balance                             0.012


*DSSAT Cropping System Model Ver. 4.7.5.008 -release  JAN 07, 2021 20:33:24

*RUN  26        : ERiMA DCC1                MZCER047 ETMZmelk    1
 MODEL          : MZCER047 - Maize
 EXPERIMENT     : ETMZmelk SN MELKSSAL
 DATA PATH      : C:\IRI\Python_Dash\ET_DSS_hist\TEST\
 TREATMENT  1   : ERiMA DCC1                MZCER047
  

!     WATER BALANCE PARAMETERS
!     ========================                 --mm--

!     Soil H20 (start) on Year/day 2006/165    586.18
!     Soil H20 (final) on Year/day 2006/270    560.29
!     Effective Irrigation                       0.00
!     Precipitation                            482.10
!     Water added with new mulch                 0.00
!     Drainage                                  79.27
!     Tiledrain flow                             0.00
!     Runoff                                    43.46
!     Mulch evaporation                          0.00
!     Soil Evaporation                         169.73
!     Transpiration                            215.53
!     Potential ET                             464.32

!     Initial mulch water content                0.00
!     Final mulch water content                  0.00

!     Final Balance                             0.008


*DSSAT Cropping System Model Ver. 4.7.5.008 -release  JAN 07, 2021 20:33:24

*RUN  27        : ERiMA DCC1                MZCER047 ETMZmelk    1
 MODEL          : MZCER047 - Maize
 EXPERIMENT     : ETMZmelk SN MELKSSAL
 DATA PATH      : C:\IRI\Python_Dash\ET_DSS_hist\TEST\
 TREATMENT  1   : ERiMA DCC1                MZCER047
  

!     WATER BALANCE PARAMETERS
!     ========================                 --mm--

!     Soil H20 (start) on Year/day 2007/165    586.18
!     Soil H20 (final) on Year/day 2007/272    562.73
!     Effective Irrigation                       0.00
!     Precipitation                            488.00
!     Water added with new mulch                 0.00
!     Drainage                                 103.20
!     Tiledrain flow                             0.00
!     Runoff                                    20.55
!     Mulch evaporation                          0.00
!     Soil Evaporation                         198.53
!     Transpiration                            189.16
!     Potential ET                             437.29

!     Initial mulch water content                0.00
!     Final mulch water content                  0.00

!     Final Balance                             0.009


*DSSAT Cropping System Model Ver. 4.7.5.008 -release  JAN 07, 2021 20:33:24

*RUN  28        : ERiMA DCC1                MZCER047 ETMZmelk    1
 MODEL          : MZCER047 - Maize
 EXPERIMENT     : ETMZmelk SN MELKSSAL
 DATA PATH      : C:\IRI\Python_Dash\ET_DSS_hist\TEST\
 TREATMENT  1   : ERiMA DCC1                MZCER047
  

!     WATER BALANCE PARAMETERS
!     ========================                 --mm--

!     Soil H20 (start) on Year/day 2008/165    586.18
!     Soil H20 (final) on Year/day 2008/270    583.71
!     Effective Irrigation                       0.00
!     Precipitation                            589.10
!     Water added with new mulch                 0.00
!     Drainage                                 134.84
!     Tiledrain flow                             0.00
!     Runoff                                    64.07
!     Mulch evaporation                          0.00
!     Soil Evaporation                         165.63
!     Transpiration                            227.02
!     Potential ET                             488.65

!     Initial mulch water content                0.00
!     Final mulch water content                  0.00

!     Final Balance                             0.009


*DSSAT Cropping System Model Ver. 4.7.5.008 -release  JAN 07, 2021 20:33:24

*RUN  29        : ERiMA DCC1                MZCER047 ETMZmelk    1
 MODEL          : MZCER047 - Maize
 EXPERIMENT     : ETMZmelk SN MELKSSAL
 DATA PATH      : C:\IRI\Python_Dash\ET_DSS_hist\TEST\
 TREATMENT  1   : ERiMA DCC1                MZCER047
  

!     WATER BALANCE PARAMETERS
!     ========================                 --mm--

!     Soil H20 (start) on Year/day 2009/165    586.18
!     Soil H20 (final) on Year/day 2009/264    550.01
!     Effective Irrigation                       0.00
!     Precipitation                            438.80
!     Water added with new mulch                 0.00
!     Drainage                                  42.38
!     Tiledrain flow                             0.00
!     Runoff                                    48.24
!     Mulch evaporation                          0.00
!     Soil Evaporation                         167.67
!     Transpiration                            216.67
!     Potential ET                             474.90

!     Initial mulch water content                0.00
!     Final mulch water content                  0.00

!     Final Balance                             0.007


*DSSAT Cropping System Model Ver. 4.7.5.008 -release  JAN 07, 2021 20:33:24

*RUN  30        : ERiMA DCC1                MZCER047 ETMZmelk    1
 MODEL          : MZCER047 - Maize
 EXPERIMENT     : ETMZmelk SN MELKSSAL
 DATA PATH      : C:\IRI\Python_Dash\ET_DSS_hist\TEST\
 TREATMENT  1   : ERiMA DCC1                MZCER047
  

!     WATER BALANCE PARAMETERS
!     ========================                 --mm--

!     Soil H20 (start) on Year/day 2010/165    586.18
!     Soil H20 (final) on Year/day 2010/260    600.49
!     Effective Irrigation                       0.00
!     Precipitation                            495.40
!     Water added with new mulch                 0.00
!     Drainage                                  68.29
!     Tiledrain flow                             0.00
!     Runoff                                    43.84
!     Mulch evaporation                          0.00
!     Soil Evaporation                         159.42
!     Transpiration                            209.54
!     Potential ET                             442.40

!     Initial mulch water content                0.00
!     Final mulch water content                  0.00

!     Final Balance                             0.005


*DSSAT Cropping System Model Ver. 4.7.5.008 -release  JAN 07, 2021 20:33:24

*RUN  31        : ERiMA DCC1                MZCER047 ETMZmelk    1
 MODEL          : MZCER047 - Maize
 EXPERIMENT     : ETMZmelk SN MELKSSAL
 DATA PATH      : C:\IRI\Python_Dash\ET_DSS_hist\TEST\
 TREATMENT  1   : ERiMA DCC1                MZCER047
  

!     WATER BALANCE PARAMETERS
!     ========================                 --mm--

!     Soil H20 (start) on Year/day 2011/165    586.18
!     Soil H20 (final) on Year/day 2011/281    517.80
!     Effective Irrigation                       0.00
!     Precipitation                            520.20
!     Water added with new mulch                 0.00
!     Drainage                                 127.39
!     Tiledrain flow                             0.00
!     Runoff                                    33.93
!     Mulch evaporation                          0.00
!     Soil Evaporation                         186.00
!     Transpiration                            241.24
!     Potential ET                             520.79

!     Initial mulch water content                0.00
!     Final mulch water content                  0.00

!     Final Balance                             0.009


*DSSAT Cropping System Model Ver. 4.7.5.008 -release  JAN 07, 2021 20:33:24

*RUN  32        : ERiMA DCC1                MZCER047 ETMZmelk    1
 MODEL          : MZCER047 - Maize
 EXPERIMENT     : ETMZmelk SN MELKSSAL
 DATA PATH      : C:\IRI\Python_Dash\ET_DSS_hist\TEST\
 TREATMENT  1   : ERiMA DCC1                MZCER047
  

!     WATER BALANCE PARAMETERS
!     ========================                 --mm--

!     Soil H20 (start) on Year/day 2012/165    586.18
!     Soil H20 (final) on Year/day 2012/282    526.99
!     Effective Irrigation                       0.00
!     Precipitation                            533.80
!     Water added with new mulch                 0.00
!     Drainage                                 127.23
!     Tiledrain flow                             0.00
!     Runoff                                    31.17
!     Mulch evaporation                          0.00
!     Soil Evaporation                         188.02
!     Transpiration                            246.57
!     Potential ET                             529.31

!     Initial mulch water content                0.00
!     Final mulch water content                  0.00

!     Final Balance                             0.013


*DSSAT Cropping System Model Ver. 4.7.5.008 -release  JAN 07, 2021 20:33:24

*RUN  33        : ERiMA DCC1                MZCER047 ETMZmelk    1
 MODEL          : MZCER047 - Maize
 EXPERIMENT     : ETMZmelk SN MELKSSAL
 DATA PATH      : C:\IRI\Python_Dash\ET_DSS_hist\TEST\
 TREATMENT  1   : ERiMA DCC1                MZCER047
  

!     WATER BALANCE PARAMETERS
!     ========================                 --mm--

!     Soil H20 (start) on Year/day 2013/165    586.18
!     Soil H20 (final) on Year/day 2013/284    531.91
!     Effective Irrigation                       0.00
!     Precipitation                            543.70
!     Water added with new mulch                 0.00
!     Drainage                                  88.35
!     Tiledrain flow                             0.00
!     Runoff                                    37.85
!     Mulch evaporation                          0.00
!     Soil Evaporation                         224.43
!     Transpiration                            247.33
!     Potential ET                             531.57

!     Initial mulch water content                0.00
!     Final mulch water content                  0.00

!     Final Balance                             0.006


*DSSAT Cropping System Model Ver. 4.7.5.008 -release  JAN 07, 2021 20:33:24

*RUN  34        : ERiMA DCC1                MZCER047 ETMZmelk    1
 MODEL          : MZCER047 - Maize
 EXPERIMENT     : ETMZmelk SN MELKSSAL
 DATA PATH      : C:\IRI\Python_Dash\ET_DSS_hist\TEST\
 TREATMENT  1   : ERiMA DCC1                MZCER047
  

!     WATER BALANCE PARAMETERS
!     ========================                 --mm--

!     Soil H20 (start) on Year/day 2014/165    586.18
!     Soil H20 (final) on Year/day 2014/283    570.98
!     Effective Irrigation                       0.00
!     Precipitation                            389.60
!     Water added with new mulch                 0.00
!     Drainage                                   4.47
!     Tiledrain flow                             0.00
!     Runoff                                    32.36
!     Mulch evaporation                          0.00
!     Soil Evaporation                         148.91
!     Transpiration                            219.05
!     Potential ET                             534.02

!     Initial mulch water content                0.00
!     Final mulch water content                  0.00

!     Final Balance                             0.008


*DSSAT Cropping System Model Ver. 4.7.5.008 -release  JAN 07, 2021 20:33:24

*RUN  35        : ERiMA DCC1                MZCER047 ETMZmelk    1
 MODEL          : MZCER047 - Maize
 EXPERIMENT     : ETMZmelk SN MELKSSAL
 DATA PATH      : C:\IRI\Python_Dash\ET_DSS_hist\TEST\
 TREATMENT  1   : ERiMA DCC1                MZCER047
  

!     WATER BALANCE PARAMETERS
!     ========================                 --mm--

!     Soil H20 (start) on Year/day 2015/165    586.18
!     Soil H20 (final) on Year/day 2015/276    496.89
!     Effective Irrigation                       0.00
!     Precipitation                            286.50
!     Water added with new mulch                 0.00
!     Drainage                                   0.00
!     Tiledrain flow                             0.00
!     Runoff                                     9.81
!     Mulch evaporation                          0.00
!     Soil Evaporation                         135.00
!     Transpiration                            230.97
!     Potential ET                             504.36

!     Initial mulch water content                0.00
!     Final mulch water content                  0.00

!     Final Balance                             0.015


*DSSAT Cropping System Model Ver. 4.7.5.008 -release  JAN 07, 2021 20:33:40

*RUN  36        : ERiMA DCC1                MZCER047 ETMZbako    1
 MODEL          : MZCER047 - Maize
 EXPERIMENT     : ETMZbako SN MELKSSAL
 DATA PATH      : C:\IRI\Python_Dash\ET_DSS_hist\TEST\
 TREATMENT  1   : ERiMA DCC1                MZCER047
  

!     WATER BALANCE PARAMETERS
!     ========================                 --mm--

!     Soil H20 (start) on Year/day 1981/165    586.18
!     Soil H20 (final) on Year/day 1981/310    503.37
!     Effective Irrigation                       0.00
!     Precipitation                            874.60
!     Water added with new mulch                 0.00
!     Drainage                                 383.27
!     Tiledrain flow                             0.00
!     Runoff                                    43.49
!     Mulch evaporation                          0.00
!     Soil Evaporation                         234.38
!     Transpiration                            296.26
!     Potential ET                             588.99

!     Initial mulch water content                0.00
!     Final mulch water content                  0.00

!     Final Balance                             0.006


*DSSAT Cropping System Model Ver. 4.7.5.008 -release  JAN 07, 2021 20:33:40

*RUN  37        : ERiMA DCC1                MZCER047 ETMZbako    1
 MODEL          : MZCER047 - Maize
 EXPERIMENT     : ETMZbako SN MELKSSAL
 DATA PATH      : C:\IRI\Python_Dash\ET_DSS_hist\TEST\
 TREATMENT  1   : ERiMA DCC1                MZCER047
  

!     WATER BALANCE PARAMETERS
!     ========================                 --mm--

!     Soil H20 (start) on Year/day 1982/165    586.18
!     Soil H20 (final) on Year/day 1982/306    527.78
!     Effective Irrigation                       0.00
!     Precipitation                            813.40
!     Water added with new mulch                 0.00
!     Drainage                                 270.84
!     Tiledrain flow                             0.00
!     Runoff                                    47.69
!     Mulch evaporation                          0.00
!     Soil Evaporation                         226.69
!     Transpiration                            326.57
!     Potential ET                             583.92

!     Initial mulch water content                0.00
!     Final mulch water content                  0.00

!     Final Balance                             0.011


*DSSAT Cropping System Model Ver. 4.7.5.008 -release  JAN 07, 2021 20:33:40

*RUN  38        : ERiMA DCC1                MZCER047 ETMZbako    1
 MODEL          : MZCER047 - Maize
 EXPERIMENT     : ETMZbako SN MELKSSAL
 DATA PATH      : C:\IRI\Python_Dash\ET_DSS_hist\TEST\
 TREATMENT  1   : ERiMA DCC1                MZCER047
  

!     WATER BALANCE PARAMETERS
!     ========================                 --mm--

!     Soil H20 (start) on Year/day 1983/165    586.18
!     Soil H20 (final) on Year/day 1983/309    512.79
!     Effective Irrigation                       0.00
!     Precipitation                            757.90
!     Water added with new mulch                 0.00
!     Drainage                                 236.92
!     Tiledrain flow                             0.00
!     Runoff                                    41.40
!     Mulch evaporation                          0.00
!     Soil Evaporation                         220.09
!     Transpiration                            332.88
!     Potential ET                             601.57

!     Initial mulch water content                0.00
!     Final mulch water content                  0.00

!     Final Balance                             0.006


*DSSAT Cropping System Model Ver. 4.7.5.008 -release  JAN 07, 2021 20:33:40

*RUN  39        : ERiMA DCC1                MZCER047 ETMZbako    1
 MODEL          : MZCER047 - Maize
 EXPERIMENT     : ETMZbako SN MELKSSAL
 DATA PATH      : C:\IRI\Python_Dash\ET_DSS_hist\TEST\
 TREATMENT  1   : ERiMA DCC1                MZCER047
  

!     WATER BALANCE PARAMETERS
!     ========================                 --mm--

!     Soil H20 (start) on Year/day 1984/165    586.18
!     Soil H20 (final) on Year/day 1984/308    498.30
!     Effective Irrigation                       0.00
!     Precipitation                            749.60
!     Water added with new mulch                 0.00
!     Drainage                                 314.66
!     Tiledrain flow                             0.00
!     Runoff                                    29.16
!     Mulch evaporation                          0.00
!     Soil Evaporation                         206.25
!     Transpiration                            287.39
!     Potential ET                             591.59

!     Initial mulch water content                0.00
!     Final mulch water content                  0.00

!     Final Balance                             0.018


*DSSAT Cropping System Model Ver. 4.7.5.008 -release  JAN 07, 2021 20:33:40

*RUN  40        : ERiMA DCC1                MZCER047 ETMZbako    1
 MODEL          : MZCER047 - Maize
 EXPERIMENT     : ETMZbako SN MELKSSAL
 DATA PATH      : C:\IRI\Python_Dash\ET_DSS_hist\TEST\
 TREATMENT  1   : ERiMA DCC1                MZCER047
  

!     WATER BALANCE PARAMETERS
!     ========================                 --mm--

!     Soil H20 (start) on Year/day 1985/165    586.18
!     Soil H20 (final) on Year/day 1985/309    499.97
!     Effective Irrigation                       0.00
!     Precipitation                            802.30
!     Water added with new mulch                 0.00
!     Drainage                                 305.11
!     Tiledrain flow                             0.00
!     Runoff                                    58.31
!     Mulch evaporation                          0.00
!     Soil Evaporation                         210.81
!     Transpiration                            314.26
!     Potential ET                             580.75

!     Initial mulch water content                0.00
!     Final mulch water content                  0.00

!     Final Balance                             0.015


*DSSAT Cropping System Model Ver. 4.7.5.008 -release  JAN 07, 2021 20:33:40

*RUN  41        : ERiMA DCC1                MZCER047 ETMZbako    1
 MODEL          : MZCER047 - Maize
 EXPERIMENT     : ETMZbako SN MELKSSAL
 DATA PATH      : C:\IRI\Python_Dash\ET_DSS_hist\TEST\
 TREATMENT  1   : ERiMA DCC1                MZCER047
  

!     WATER BALANCE PARAMETERS
!     ========================                 --mm--

!     Soil H20 (start) on Year/day 1986/165    586.18
!     Soil H20 (final) on Year/day 1986/304    496.73
!     Effective Irrigation                       0.00
!     Precipitation                            803.70
!     Water added with new mulch                 0.00
!     Drainage                                 304.62
!     Tiledrain flow                             0.00
!     Runoff                                    71.63
!     Mulch evaporation                          0.00
!     Soil Evaporation                         203.63
!     Transpiration                            313.25
!     Potential ET                             571.31

!     Initial mulch water content                0.00
!     Final mulch water content                  0.00

!     Final Balance                             0.015


*DSSAT Cropping System Model Ver. 4.7.5.008 -release  JAN 07, 2021 20:33:40

*RUN  42        : ERiMA DCC1                MZCER047 ETMZbako    1
 MODEL          : MZCER047 - Maize
 EXPERIMENT     : ETMZbako SN MELKSSAL
 DATA PATH      : C:\IRI\Python_Dash\ET_DSS_hist\TEST\
 TREATMENT  1   : ERiMA DCC1                MZCER047
  

!     WATER BALANCE PARAMETERS
!     ========================                 --mm--

!     Soil H20 (start) on Year/day 1987/165    586.18
!     Soil H20 (final) on Year/day 1987/309    499.73
!     Effective Irrigation                       0.00
!     Precipitation                            749.90
!     Water added with new mulch                 0.00
!     Drainage                                 237.32
!     Tiledrain flow                             0.00
!     Runoff                                    42.53
!     Mulch evaporation                          0.00
!     Soil Evaporation                         219.76
!     Transpiration                            336.73
!     Potential ET                             586.78

!     Initial mulch water content                0.00
!     Final mulch water content                  0.00

!     Final Balance                             0.006


*DSSAT Cropping System Model Ver. 4.7.5.008 -release  JAN 07, 2021 20:33:40

*RUN  43        : ERiMA DCC1                MZCER047 ETMZbako    1
 MODEL          : MZCER047 - Maize
 EXPERIMENT     : ETMZbako SN MELKSSAL
 DATA PATH      : C:\IRI\Python_Dash\ET_DSS_hist\TEST\
 TREATMENT  1   : ERiMA DCC1                MZCER047
  

!     WATER BALANCE PARAMETERS
!     ========================                 --mm--

!     Soil H20 (start) on Year/day 1988/165    586.18
!     Soil H20 (final) on Year/day 1988/303    545.20
!     Effective Irrigation                       0.00
!     Precipitation                            813.90
!     Water added with new mulch                 0.00
!     Drainage                                 273.77
!     Tiledrain flow                             0.00
!     Runoff                                    46.96
!     Mulch evaporation                          0.00
!     Soil Evaporation                         217.16
!     Transpiration                            316.97
!     Potential ET                             567.99

!     Initial mulch water content                0.00
!     Final mulch water content                  0.00

!     Final Balance                             0.015


*DSSAT Cropping System Model Ver. 4.7.5.008 -release  JAN 07, 2021 20:33:40

*RUN  44        : ERiMA DCC1                MZCER047 ETMZbako    1
 MODEL          : MZCER047 - Maize
 EXPERIMENT     : ETMZbako SN MELKSSAL
 DATA PATH      : C:\IRI\Python_Dash\ET_DSS_hist\TEST\
 TREATMENT  1   : ERiMA DCC1                MZCER047
  

!     WATER BALANCE PARAMETERS
!     ========================                 --mm--

!     Soil H20 (start) on Year/day 1989/165    586.18
!     Soil H20 (final) on Year/day 1989/309    508.45
!     Effective Irrigation                       0.00
!     Precipitation                            813.00
!     Water added with new mulch                 0.00
!     Drainage                                 287.98
!     Tiledrain flow                             0.00
!     Runoff                                    43.45
!     Mulch evaporation                          0.00
!     Soil Evaporation                         233.02
!     Transpiration                            326.27
!     Potential ET                             618.74

!     Initial mulch water content                0.00
!     Final mulch water content                  0.00

!     Final Balance                             0.007


*DSSAT Cropping System Model Ver. 4.7.5.008 -release  JAN 07, 2021 20:33:40

*RUN  45        : ERiMA DCC1                MZCER047 ETMZbako    1
 MODEL          : MZCER047 - Maize
 EXPERIMENT     : ETMZbako SN MELKSSAL
 DATA PATH      : C:\IRI\Python_Dash\ET_DSS_hist\TEST\
 TREATMENT  1   : ERiMA DCC1                MZCER047
  

!     WATER BALANCE PARAMETERS
!     ========================                 --mm--

!     Soil H20 (start) on Year/day 1990/165    586.18
!     Soil H20 (final) on Year/day 1990/302    515.30
!     Effective Irrigation                       0.00
!     Precipitation                            815.60
!     Water added with new mulch                 0.00
!     Drainage                                 298.59
!     Tiledrain flow                             0.00
!     Runoff                                    60.14
!     Mulch evaporation                          0.00
!     Soil Evaporation                         208.67
!     Transpiration                            319.05
!     Potential ET                             552.74

!     Initial mulch water content                0.00
!     Final mulch water content                  0.00

!     Final Balance                             0.015


*DSSAT Cropping System Model Ver. 4.7.5.008 -release  JAN 07, 2021 20:33:40

*RUN  46        : ERiMA DCC1                MZCER047 ETMZbako    1
 MODEL          : MZCER047 - Maize
 EXPERIMENT     : ETMZbako SN MELKSSAL
 DATA PATH      : C:\IRI\Python_Dash\ET_DSS_hist\TEST\
 TREATMENT  1   : ERiMA DCC1                MZCER047
  

!     WATER BALANCE PARAMETERS
!     ========================                 --mm--

!     Soil H20 (start) on Year/day 1991/165    586.18
!     Soil H20 (final) on Year/day 1991/311    495.63
!     Effective Irrigation                       0.00
!     Precipitation                            834.20
!     Water added with new mulch                 0.00
!     Drainage                                 328.29
!     Tiledrain flow                             0.00
!     Runoff                                    72.56
!     Mulch evaporation                          0.00
!     Soil Evaporation                         238.61
!     Transpiration                            285.27
!     Potential ET                             605.36

!     Initial mulch water content                0.00
!     Final mulch water content                  0.00

!     Final Balance                             0.015


*DSSAT Cropping System Model Ver. 4.7.5.008 -release  JAN 07, 2021 20:33:40

*RUN  47        : ERiMA DCC1                MZCER047 ETMZbako    1
 MODEL          : MZCER047 - Maize
 EXPERIMENT     : ETMZbako SN MELKSSAL
 DATA PATH      : C:\IRI\Python_Dash\ET_DSS_hist\TEST\
 TREATMENT  1   : ERiMA DCC1                MZCER047
  

!     WATER BALANCE PARAMETERS
!     ========================                 --mm--

!     Soil H20 (start) on Year/day 1992/165    586.18
!     Soil H20 (final) on Year/day 1992/305    548.13
!     Effective Irrigation                       0.00
!     Precipitation                            916.90
!     Water added with new mulch                 0.00
!     Drainage                                 325.98
!     Tiledrain flow                             0.00
!     Runoff                                    66.03
!     Mulch evaporation                          0.00
!     Soil Evaporation                         244.10
!     Transpiration                            318.84
!     Potential ET                             580.03

!     Initial mulch water content                0.00
!     Final mulch water content                  0.00

!     Final Balance                             0.005


*DSSAT Cropping System Model Ver. 4.7.5.008 -release  JAN 07, 2021 20:33:40

*RUN  48        : ERiMA DCC1                MZCER047 ETMZbako    1
 MODEL          : MZCER047 - Maize
 EXPERIMENT     : ETMZbako SN MELKSSAL
 DATA PATH      : C:\IRI\Python_Dash\ET_DSS_hist\TEST\
 TREATMENT  1   : ERiMA DCC1                MZCER047
  

!     WATER BALANCE PARAMETERS
!     ========================                 --mm--

!     Soil H20 (start) on Year/day 1993/165    586.18
!     Soil H20 (final) on Year/day 1993/307    547.99
!     Effective Irrigation                       0.00
!     Precipitation                            940.00
!     Water added with new mulch                 0.00
!     Drainage                                 331.86
!     Tiledrain flow                             0.00
!     Runoff                                    85.48
!     Mulch evaporation                          0.00
!     Soil Evaporation                         242.75
!     Transpiration                            318.09
!     Potential ET                             591.84

!     Initial mulch water content                0.00
!     Final mulch water content                  0.00

!     Final Balance                             0.011


*DSSAT Cropping System Model Ver. 4.7.5.008 -release  JAN 07, 2021 20:33:40

*RUN  49        : ERiMA DCC1                MZCER047 ETMZbako    1
 MODEL          : MZCER047 - Maize
 EXPERIMENT     : ETMZbako SN MELKSSAL
 DATA PATH      : C:\IRI\Python_Dash\ET_DSS_hist\TEST\
 TREATMENT  1   : ERiMA DCC1                MZCER047
  

!     WATER BALANCE PARAMETERS
!     ========================                 --mm--

!     Soil H20 (start) on Year/day 1994/165    586.18
!     Soil H20 (final) on Year/day 1994/309    498.07
!     Effective Irrigation                       0.00
!     Precipitation                            827.60
!     Water added with new mulch                 0.00
!     Drainage                                 297.29
!     Tiledrain flow                             0.00
!     Runoff                                    83.66
!     Mulch evaporation                          0.00
!     Soil Evaporation                         218.13
!     Transpiration                            316.60
!     Potential ET                             612.33

!     Initial mulch water content                0.00
!     Final mulch water content                  0.00

!     Final Balance                             0.014


*DSSAT Cropping System Model Ver. 4.7.5.008 -release  JAN 07, 2021 20:33:40

*RUN  50        : ERiMA DCC1                MZCER047 ETMZbako    1
 MODEL          : MZCER047 - Maize
 EXPERIMENT     : ETMZbako SN MELKSSAL
 DATA PATH      : C:\IRI\Python_Dash\ET_DSS_hist\TEST\
 TREATMENT  1   : ERiMA DCC1                MZCER047
  

!     WATER BALANCE PARAMETERS
!     ========================                 --mm--

!     Soil H20 (start) on Year/day 1995/165    586.18
!     Soil H20 (final) on Year/day 1995/308    499.59
!     Effective Irrigation                       0.00
!     Precipitation                            723.90
!     Water added with new mulch                 0.00
!     Drainage                                 210.79
!     Tiledrain flow                             0.00
!     Runoff                                    48.76
!     Mulch evaporation                          0.00
!     Soil Evaporation                         225.82
!     Transpiration                            325.11
!     Potential ET                             596.81

!     Initial mulch water content                0.00
!     Final mulch water content                  0.00

!     Final Balance                             0.012


*DSSAT Cropping System Model Ver. 4.7.5.008 -release  JAN 07, 2021 20:33:40

*RUN  51        : ERiMA DCC1                MZCER047 ETMZbako    1
 MODEL          : MZCER047 - Maize
 EXPERIMENT     : ETMZbako SN MELKSSAL
 DATA PATH      : C:\IRI\Python_Dash\ET_DSS_hist\TEST\
 TREATMENT  1   : ERiMA DCC1                MZCER047
  

!     WATER BALANCE PARAMETERS
!     ========================                 --mm--

!     Soil H20 (start) on Year/day 1996/165    586.18
!     Soil H20 (final) on Year/day 1996/308    494.22
!     Effective Irrigation                       0.00
!     Precipitation                            732.70
!     Water added with new mulch                 0.00
!     Drainage                                 255.06
!     Tiledrain flow                             0.00
!     Runoff                                    60.88
!     Mulch evaporation                          0.00
!     Soil Evaporation                         193.99
!     Transpiration                            314.71
!     Potential ET                             599.66

!     Initial mulch water content                0.00
!     Final mulch water content                  0.00

!     Final Balance                             0.014


*DSSAT Cropping System Model Ver. 4.7.5.008 -release  JAN 07, 2021 20:33:40

*RUN  52        : ERiMA DCC1                MZCER047 ETMZbako    1
 MODEL          : MZCER047 - Maize
 EXPERIMENT     : ETMZbako SN MELKSSAL
 DATA PATH      : C:\IRI\Python_Dash\ET_DSS_hist\TEST\
 TREATMENT  1   : ERiMA DCC1                MZCER047
  

!     WATER BALANCE PARAMETERS
!     ========================                 --mm--

!     Soil H20 (start) on Year/day 1997/165    586.18
!     Soil H20 (final) on Year/day 1997/308    582.12
!     Effective Irrigation                       0.00
!     Precipitation                            795.20
!     Water added with new mulch                 0.00
!     Drainage                                 162.40
!     Tiledrain flow                             0.00
!     Runoff                                    67.70
!     Mulch evaporation                          0.00
!     Soil Evaporation                         211.01
!     Transpiration                            358.14
!     Potential ET                             585.71

!     Initial mulch water content                0.00
!     Final mulch water content                  0.00

!     Final Balance                             0.008


*DSSAT Cropping System Model Ver. 4.7.5.008 -release  JAN 07, 2021 20:33:40

*RUN  53        : ERiMA DCC1                MZCER047 ETMZbako    1
 MODEL          : MZCER047 - Maize
 EXPERIMENT     : ETMZbako SN MELKSSAL
 DATA PATH      : C:\IRI\Python_Dash\ET_DSS_hist\TEST\
 TREATMENT  1   : ERiMA DCC1                MZCER047
  

!     WATER BALANCE PARAMETERS
!     ========================                 --mm--

!     Soil H20 (start) on Year/day 1998/165    586.18
!     Soil H20 (final) on Year/day 1998/307    554.76
!     Effective Irrigation                       0.00
!     Precipitation                            992.90
!     Water added with new mulch                 0.00
!     Drainage                                 408.48
!     Tiledrain flow                             0.00
!     Runoff                                    70.85
!     Mulch evaporation                          0.00
!     Soil Evaporation                         253.15
!     Transpiration                            291.83
!     Potential ET                             590.76

!     Initial mulch water content                0.00
!     Final mulch water content                  0.00

!     Final Balance                             0.010


*DSSAT Cropping System Model Ver. 4.7.5.008 -release  JAN 07, 2021 20:33:40

*RUN  54        : ERiMA DCC1                MZCER047 ETMZbako    1
 MODEL          : MZCER047 - Maize
 EXPERIMENT     : ETMZbako SN MELKSSAL
 DATA PATH      : C:\IRI\Python_Dash\ET_DSS_hist\TEST\
 TREATMENT  1   : ERiMA DCC1                MZCER047
  

!     WATER BALANCE PARAMETERS
!     ========================                 --mm--

!     Soil H20 (start) on Year/day 1999/165    586.18
!     Soil H20 (final) on Year/day 1999/309    532.29
!     Effective Irrigation                       0.00
!     Precipitation                            842.50
!     Water added with new mulch                 0.00
!     Drainage                                 271.06
!     Tiledrain flow                             0.00
!     Runoff                                    54.73
!     Mulch evaporation                          0.00
!     Soil Evaporation                         221.61
!     Transpiration                            348.98
!     Potential ET                             594.82

!     Initial mulch water content                0.00
!     Final mulch water content                  0.00

!     Final Balance                             0.007


*DSSAT Cropping System Model Ver. 4.7.5.008 -release  JAN 07, 2021 20:33:40

*RUN  55        : ERiMA DCC1                MZCER047 ETMZbako    1
 MODEL          : MZCER047 - Maize
 EXPERIMENT     : ETMZbako SN MELKSSAL
 DATA PATH      : C:\IRI\Python_Dash\ET_DSS_hist\TEST\
 TREATMENT  1   : ERiMA DCC1                MZCER047
  

!     WATER BALANCE PARAMETERS
!     ========================                 --mm--

!     Soil H20 (start) on Year/day 2000/165    586.18
!     Soil H20 (final) on Year/day 2000/319    549.68
!     Effective Irrigation                       0.00
!     Precipitation                           1137.40
!     Water added with new mulch                 0.00
!     Drainage                                 422.96
!     Tiledrain flow                             0.00
!     Runoff                                   198.42
!     Mulch evaporation                          0.00
!     Soil Evaporation                         263.05
!     Transpiration                            289.45
!     Potential ET                             593.82

!     Initial mulch water content                0.00
!     Final mulch water content                  0.00

!     Final Balance                             0.007


*DSSAT Cropping System Model Ver. 4.7.5.008 -release  JAN 07, 2021 20:33:40

*RUN  56        : ERiMA DCC1                MZCER047 ETMZbako    1
 MODEL          : MZCER047 - Maize
 EXPERIMENT     : ETMZbako SN MELKSSAL
 DATA PATH      : C:\IRI\Python_Dash\ET_DSS_hist\TEST\
 TREATMENT  1   : ERiMA DCC1                MZCER047
  

!     WATER BALANCE PARAMETERS
!     ========================                 --mm--

!     Soil H20 (start) on Year/day 2001/165    586.18
!     Soil H20 (final) on Year/day 2001/305    521.55
!     Effective Irrigation                       0.00
!     Precipitation                            830.30
!     Water added with new mulch                 0.00
!     Drainage                                 307.76
!     Tiledrain flow                             0.00
!     Runoff                                   104.65
!     Mulch evaporation                          0.00
!     Soil Evaporation                         195.26
!     Transpiration                            287.26
!     Potential ET                             506.37

!     Initial mulch water content                0.00
!     Final mulch water content                  0.00

!     Final Balance                             0.006


*DSSAT Cropping System Model Ver. 4.7.5.008 -release  JAN 07, 2021 20:33:40

*RUN  57        : ERiMA DCC1                MZCER047 ETMZbako    1
 MODEL          : MZCER047 - Maize
 EXPERIMENT     : ETMZbako SN MELKSSAL
 DATA PATH      : C:\IRI\Python_Dash\ET_DSS_hist\TEST\
 TREATMENT  1   : ERiMA DCC1                MZCER047
  

!     WATER BALANCE PARAMETERS
!     ========================                 --mm--

!     Soil H20 (start) on Year/day 2002/165    586.18
!     Soil H20 (final) on Year/day 2002/302    492.21
!     Effective Irrigation                       0.00
!     Precipitation                            563.80
!     Water added with new mulch                 0.00
!     Drainage                                 143.93
!     Tiledrain flow                             0.00
!     Runoff                                    63.85
!     Mulch evaporation                          0.00
!     Soil Evaporation                         179.83
!     Transpiration                            270.15
!     Potential ET                             582.60

!     Initial mulch water content                0.00
!     Final mulch water content                  0.00

!     Final Balance                             0.013


*DSSAT Cropping System Model Ver. 4.7.5.008 -release  JAN 07, 2021 20:33:40

*RUN  58        : ERiMA DCC1                MZCER047 ETMZbako    1
 MODEL          : MZCER047 - Maize
 EXPERIMENT     : ETMZbako SN MELKSSAL
 DATA PATH      : C:\IRI\Python_Dash\ET_DSS_hist\TEST\
 TREATMENT  1   : ERiMA DCC1                MZCER047
  

!     WATER BALANCE PARAMETERS
!     ========================                 --mm--

!     Soil H20 (start) on Year/day 2003/165    586.18
!     Soil H20 (final) on Year/day 2003/309    489.79
!     Effective Irrigation                       0.00
!     Precipitation                           1103.40
!     Water added with new mulch                 0.00
!     Drainage                                 561.79
!     Tiledrain flow                             0.00
!     Runoff                                   180.48
!     Mulch evaporation                          0.00
!     Soil Evaporation                         226.51
!     Transpiration                            230.99
!     Potential ET                             581.38

!     Initial mulch water content                0.00
!     Final mulch water content                  0.00

!     Final Balance                             0.014


*DSSAT Cropping System Model Ver. 4.7.5.008 -release  JAN 07, 2021 20:33:40

*RUN  59        : ERiMA DCC1                MZCER047 ETMZbako    1
 MODEL          : MZCER047 - Maize
 EXPERIMENT     : ETMZbako SN MELKSSAL
 DATA PATH      : C:\IRI\Python_Dash\ET_DSS_hist\TEST\
 TREATMENT  1   : ERiMA DCC1                MZCER047
  

!     WATER BALANCE PARAMETERS
!     ========================                 --mm--

!     Soil H20 (start) on Year/day 2004/165    586.18
!     Soil H20 (final) on Year/day 2004/307    497.38
!     Effective Irrigation                       0.00
!     Precipitation                            819.10
!     Water added with new mulch                 0.00
!     Drainage                                 273.06
!     Tiledrain flow                             0.00
!     Runoff                                   136.56
!     Mulch evaporation                          0.00
!     Soil Evaporation                         202.87
!     Transpiration                            295.41
!     Potential ET                             557.53

!     Initial mulch water content                0.00
!     Final mulch water content                  0.00

!     Final Balance                             0.009


*DSSAT Cropping System Model Ver. 4.7.5.008 -release  JAN 07, 2021 20:33:40

*RUN  60        : ERiMA DCC1                MZCER047 ETMZbako    1
 MODEL          : MZCER047 - Maize
 EXPERIMENT     : ETMZbako SN MELKSSAL
 DATA PATH      : C:\IRI\Python_Dash\ET_DSS_hist\TEST\
 TREATMENT  1   : ERiMA DCC1                MZCER047
  

!     WATER BALANCE PARAMETERS
!     ========================                 --mm--

!     Soil H20 (start) on Year/day 2005/165    586.18
!     Soil H20 (final) on Year/day 2005/297    514.23
!     Effective Irrigation                       0.00
!     Precipitation                            938.60
!     Water added with new mulch                 0.00
!     Drainage                                 356.06
!     Tiledrain flow                             0.00
!     Runoff                                   112.10
!     Mulch evaporation                          0.00
!     Soil Evaporation                         208.33
!     Transpiration                            334.05
!     Potential ET                             565.27

!     Initial mulch water content                0.00
!     Final mulch water content                  0.00

!     Final Balance                             0.006


*DSSAT Cropping System Model Ver. 4.7.5.008 -release  JAN 07, 2021 20:33:40

*RUN  61        : ERiMA DCC1                MZCER047 ETMZbako    1
 MODEL          : MZCER047 - Maize
 EXPERIMENT     : ETMZbako SN MELKSSAL
 DATA PATH      : C:\IRI\Python_Dash\ET_DSS_hist\TEST\
 TREATMENT  1   : ERiMA DCC1                MZCER047
  

!     WATER BALANCE PARAMETERS
!     ========================                 --mm--

!     Soil H20 (start) on Year/day 2006/165    586.18
!     Soil H20 (final) on Year/day 2006/303    564.66
!     Effective Irrigation                       0.00
!     Precipitation                           1032.40
!     Water added with new mulch                 0.00
!     Drainage                                 358.33
!     Tiledrain flow                             0.00
!     Runoff                                   133.61
!     Mulch evaporation                          0.00
!     Soil Evaporation                         233.28
!     Transpiration                            328.69
!     Potential ET                             594.48

!     Initial mulch water content                0.00
!     Final mulch water content                  0.00

!     Final Balance                             0.010


*DSSAT Cropping System Model Ver. 4.7.5.008 -release  JAN 07, 2021 20:33:40

*RUN  62        : ERiMA DCC1                MZCER047 ETMZbako    1
 MODEL          : MZCER047 - Maize
 EXPERIMENT     : ETMZbako SN MELKSSAL
 DATA PATH      : C:\IRI\Python_Dash\ET_DSS_hist\TEST\
 TREATMENT  1   : ERiMA DCC1                MZCER047
  

!     WATER BALANCE PARAMETERS
!     ========================                 --mm--

!     Soil H20 (start) on Year/day 2007/165    586.18
!     Soil H20 (final) on Year/day 2007/310    497.84
!     Effective Irrigation                       0.00
!     Precipitation                            850.70
!     Water added with new mulch                 0.00
!     Drainage                                 292.68
!     Tiledrain flow                             0.00
!     Runoff                                   120.05
!     Mulch evaporation                          0.00
!     Soil Evaporation                         220.27
!     Transpiration                            306.02
!     Potential ET                             574.49

!     Initial mulch water content                0.00
!     Final mulch water content                  0.00

!     Final Balance                             0.012


*DSSAT Cropping System Model Ver. 4.7.5.008 -release  JAN 07, 2021 20:33:40

*RUN  63        : ERiMA DCC1                MZCER047 ETMZbako    1
 MODEL          : MZCER047 - Maize
 EXPERIMENT     : ETMZbako SN MELKSSAL
 DATA PATH      : C:\IRI\Python_Dash\ET_DSS_hist\TEST\
 TREATMENT  1   : ERiMA DCC1                MZCER047
  

!     WATER BALANCE PARAMETERS
!     ========================                 --mm--

!     Soil H20 (start) on Year/day 2008/165    586.18
!     Soil H20 (final) on Year/day 2008/305    532.74
!     Effective Irrigation                       0.00
!     Precipitation                            966.00
!     Water added with new mulch                 0.00
!     Drainage                                 314.40
!     Tiledrain flow                             0.00
!     Runoff                                   136.85
!     Mulch evaporation                          0.00
!     Soil Evaporation                         262.21
!     Transpiration                            305.97
!     Potential ET                             622.52

!     Initial mulch water content                0.00
!     Final mulch water content                  0.00

!     Final Balance                             0.007


*DSSAT Cropping System Model Ver. 4.7.5.008 -release  JAN 07, 2021 20:33:40

*RUN  64        : ERiMA DCC1                MZCER047 ETMZbako    1
 MODEL          : MZCER047 - Maize
 EXPERIMENT     : ETMZbako SN MELKSSAL
 DATA PATH      : C:\IRI\Python_Dash\ET_DSS_hist\TEST\
 TREATMENT  1   : ERiMA DCC1                MZCER047
  

!     WATER BALANCE PARAMETERS
!     ========================                 --mm--

!     Soil H20 (start) on Year/day 2009/165    586.18
!     Soil H20 (final) on Year/day 2009/318    500.35
!     Effective Irrigation                       0.00
!     Precipitation                            880.80
!     Water added with new mulch                 0.00
!     Drainage                                 288.98
!     Tiledrain flow                             0.00
!     Runoff                                   107.82
!     Mulch evaporation                          0.00
!     Soil Evaporation                         241.91
!     Transpiration                            327.92
!     Potential ET                             626.59

!     Initial mulch water content                0.00
!     Final mulch water content                  0.00

!     Final Balance                             0.010


*DSSAT Cropping System Model Ver. 4.7.5.008 -release  JAN 07, 2021 20:33:40

*RUN  65        : ERiMA DCC1                MZCER047 ETMZbako    1
 MODEL          : MZCER047 - Maize
 EXPERIMENT     : ETMZbako SN MELKSSAL
 DATA PATH      : C:\IRI\Python_Dash\ET_DSS_hist\TEST\
 TREATMENT  1   : ERiMA DCC1                MZCER047
  

!     WATER BALANCE PARAMETERS
!     ========================                 --mm--

!     Soil H20 (start) on Year/day 2010/165    586.18
!     Soil H20 (final) on Year/day 2010/307    496.23
!     Effective Irrigation                       0.00
!     Precipitation                            766.50
!     Water added with new mulch                 0.00
!     Drainage                                 195.29
!     Tiledrain flow                             0.00
!     Runoff                                    67.79
!     Mulch evaporation                          0.00
!     Soil Evaporation                         232.28
!     Transpiration                            361.08
!     Potential ET                             639.88

!     Initial mulch water content                0.00
!     Final mulch water content                  0.00

!     Final Balance                             0.011


*DSSAT Cropping System Model Ver. 4.7.5.008 -release  JAN 07, 2021 20:33:40

*RUN  66        : ERiMA DCC1                MZCER047 ETMZbako    1
 MODEL          : MZCER047 - Maize
 EXPERIMENT     : ETMZbako SN MELKSSAL
 DATA PATH      : C:\IRI\Python_Dash\ET_DSS_hist\TEST\
 TREATMENT  1   : ERiMA DCC1                MZCER047
  

!     WATER BALANCE PARAMETERS
!     ========================                 --mm--

!     Soil H20 (start) on Year/day 2011/165    586.18
!     Soil H20 (final) on Year/day 2011/306    513.42
!     Effective Irrigation                       0.00
!     Precipitation                            872.70
!     Water added with new mulch                 0.00
!     Drainage                                 331.90
!     Tiledrain flow                             0.00
!     Runoff                                    88.15
!     Mulch evaporation                          0.00
!     Soil Evaporation                         217.70
!     Transpiration                            307.71
!     Potential ET                             585.05

!     Initial mulch water content                0.00
!     Final mulch water content                  0.00

!     Final Balance                             0.009


*DSSAT Cropping System Model Ver. 4.7.5.008 -release  JAN 07, 2021 20:33:40

*RUN  67        : ERiMA DCC1                MZCER047 ETMZbako    1
 MODEL          : MZCER047 - Maize
 EXPERIMENT     : ETMZbako SN MELKSSAL
 DATA PATH      : C:\IRI\Python_Dash\ET_DSS_hist\TEST\
 TREATMENT  1   : ERiMA DCC1                MZCER047
  

!     WATER BALANCE PARAMETERS
!     ========================                 --mm--

!     Soil H20 (start) on Year/day 2012/165    586.18
!     Soil H20 (final) on Year/day 2012/302    497.87
!     Effective Irrigation                       0.00
!     Precipitation                            865.10
!     Water added with new mulch                 0.00
!     Drainage                                 371.22
!     Tiledrain flow                             0.00
!     Runoff                                    79.42
!     Mulch evaporation                          0.00
!     Soil Evaporation                         187.39
!     Transpiration                            315.37
!     Potential ET                             565.18

!     Initial mulch water content                0.00
!     Final mulch water content                  0.00

!     Final Balance                             0.012


*DSSAT Cropping System Model Ver. 4.7.5.008 -release  JAN 07, 2021 20:33:40

*RUN  68        : ERiMA DCC1                MZCER047 ETMZbako    1
 MODEL          : MZCER047 - Maize
 EXPERIMENT     : ETMZbako SN MELKSSAL
 DATA PATH      : C:\IRI\Python_Dash\ET_DSS_hist\TEST\
 TREATMENT  1   : ERiMA DCC1                MZCER047
  

!     WATER BALANCE PARAMETERS
!     ========================                 --mm--

!     Soil H20 (start) on Year/day 2013/165    586.18
!     Soil H20 (final) on Year/day 2013/311    523.89
!     Effective Irrigation                       0.00
!     Precipitation                            841.50
!     Water added with new mulch                 0.00
!     Drainage                                 283.80
!     Tiledrain flow                             0.00
!     Runoff                                    68.71
!     Mulch evaporation                          0.00
!     Soil Evaporation                         239.35
!     Transpiration                            311.92
!     Potential ET                             596.48

!     Initial mulch water content                0.00
!     Final mulch water content                  0.00

!     Final Balance                             0.015


*DSSAT Cropping System Model Ver. 4.7.5.008 -release  JAN 07, 2021 20:33:40

*RUN  69        : ERiMA DCC1                MZCER047 ETMZbako    1
 MODEL          : MZCER047 - Maize
 EXPERIMENT     : ETMZbako SN MELKSSAL
 DATA PATH      : C:\IRI\Python_Dash\ET_DSS_hist\TEST\
 TREATMENT  1   : ERiMA DCC1                MZCER047
  

!     WATER BALANCE PARAMETERS
!     ========================                 --mm--

!     Soil H20 (start) on Year/day 2014/165    586.18
!     Soil H20 (final) on Year/day 2014/305    543.19
!     Effective Irrigation                       0.00
!     Precipitation                            830.70
!     Water added with new mulch                 0.00
!     Drainage                                 265.31
!     Tiledrain flow                             0.00
!     Runoff                                    77.61
!     Mulch evaporation                          0.00
!     Soil Evaporation                         199.31
!     Transpiration                            331.45
!     Potential ET                             556.49

!     Initial mulch water content                0.00
!     Final mulch water content                  0.00

!     Final Balance                             0.008


*DSSAT Cropping System Model Ver. 4.7.5.008 -release  JAN 07, 2021 20:33:40

*RUN  70        : ERiMA DCC1                MZCER047 ETMZbako    1
 MODEL          : MZCER047 - Maize
 EXPERIMENT     : ETMZbako SN MELKSSAL
 DATA PATH      : C:\IRI\Python_Dash\ET_DSS_hist\TEST\
 TREATMENT  1   : ERiMA DCC1                MZCER047
  

!     WATER BALANCE PARAMETERS
!     ========================                 --mm--

!     Soil H20 (start) on Year/day 2015/165    586.18
!     Soil H20 (final) on Year/day 2015/305    515.81
!     Effective Irrigation                       0.00
!     Precipitation                            738.90
!     Water added with new mulch                 0.00
!     Drainage                                 231.26
!     Tiledrain flow                             0.00
!     Runoff                                    31.64
!     Mulch evaporation                          0.00
!     Soil Evaporation                         213.33
!     Transpiration                            333.03
!     Potential ET                             572.66

!     Initial mulch water content                0.00
!     Final mulch water content                  0.00

!     Final Balance                             0.012

