*Soil Inorganic Nitrogen daily output file

*DSSAT Cropping System Model Ver. 4.7.5.008 -release  JAN 07, 2021 20:33:24

*RUN   1        : ERiMA DCC1                MZCER047 ETMZmelk    1
 MODEL          : MZCER047 - Maize
 EXPERIMENT     : ETMZmelk SN MELKSSAL
 DATA PATH      : C:\IRI\Python_Dash\ET_DSS_hist\TEST\
 TREATMENT  1   : ERiMA DCC1                MZCER047
  
!                                                                                                                              NO3 (ppm) at soil dep. (cm):                                                    NH4 (ppm) at soil dep. (cm):                                                    Total Inorganic N @dep(ppm):
!                                                                                                                               0-5    5-15   15-20   20-35   35-50   50-65   65-81   81-97  97-118 118-200     0-5    5-15   15-20   20-35   35-50   50-65   65-81   81-97  97-118 118-200     0-5    5-15   15-20   20-35   35-50   50-65   65-81   81-97  97-118 118-200
@YEAR DOY   DAS  NAPC  NI#M    NIAD    NITD    NHTD    NMNC    NITC    NDNC    NIMC    AMLC   NNMNC    NUCM    NLCC    TDFC    NI1D    NI2D    NI3D    NI4D    NI5D    NI6D    NI7D    NI8D    NI9D    NI10    NH1D    NH2D    NH3D    NH4D    NH5D    NH6D    NH7D    NH8D    NH9D    NH10    NT1D    NT2D    NT3D    NT4D    NT5D    NT6D    NT7D    NT8D    NT9D    NT10    
 1981 164     0     0     0    42.0    39.6     2.4    0.00    0.00    0.00    0.00    0.00    0.00    0.00    0.00    0.00   15.00    15.0    15.0    2.00    0.00    0.00    0.00    0.00    0.00    0.00    0.10    0.10    0.10    0.10    0.10    0.10    0.10    0.10    0.10    0.10   15.10   15.10   15.10    2.10    0.10    0.10    0.10    0.10    0.10    0.10
 1981 165     1     0     0    43.1    40.9     2.2    1.10    1.32    0.00    0.00    0.00    1.10    0.00    0.00    0.00   15.07    15.1    15.1    2.06    0.06    0.06    0.06    0.05    0.05    0.05    0.12    0.12    0.12    0.11    0.10    0.10    0.09    0.09    0.08    0.08   15.19   15.19   15.19    2.17    0.16    0.16    0.15    0.15    0.13    0.13
 1981 166     2    30     1    60.7    42.1    18.6    2.19    2.53    0.00    0.00    0.00    2.19    0.00    0.00    0.00   15.38    15.1    15.1    2.12    0.12    0.12    0.11    0.10    0.10    0.09   27.57    0.13    0.13    0.11    0.10    0.10    0.09    0.09    0.07    0.07   42.96   15.21   15.18    2.23    0.22    0.22    0.19    0.19    0.17    0.17
 1981 167     3    30     1    68.3    53.8    14.5    3.28   14.32    0.00    0.00    0.00    3.28    0.00    0.00    0.00   33.35    15.1    15.0    2.19    0.18    0.17    0.15    0.15    0.13    0.13   20.82    0.14    0.14    0.11    0.10    0.10    0.08    0.09    0.07    0.07   54.18   15.23   15.18    2.29    0.28    0.28    0.24    0.24    0.20    0.20
 1981 168     4    30     1    72.3    63.1     9.3    4.37   23.59    0.00    0.00    0.00    4.37    0.00    0.00    0.00   47.17    15.1    15.0    2.25    0.24    0.23    0.20    0.20    0.17    0.16   12.25    0.14    0.14    0.11    0.10    0.10    0.08    0.08    0.07    0.07   59.42   15.24   15.18    2.36    0.34    0.34    0.28    0.28    0.23    0.23
 1981 169     5    30     1    74.9    68.8     6.0    5.45   29.40    0.00    0.00    0.00    5.45    0.00    0.00    0.00   55.30    15.1    15.0    2.31    0.30    0.29    0.25    0.24    0.20    0.20    6.90    0.14    0.14    0.11    0.10    0.10    0.08    0.08    0.06    0.07   62.20   15.26   15.17    2.42    0.40    0.39    0.33    0.33    0.27    0.26
 1981 170     6    30     1    76.8    72.6     4.1    6.55   33.23    0.00    0.00    0.00    6.55    0.00    0.00    0.00   60.12    15.1    15.0    2.38    0.36    0.35    0.29    0.29    0.24    0.23    3.75    0.14    0.14    0.11    0.10    0.10    0.08    0.08    0.06    0.06   63.87   15.28   15.17    2.49    0.46    0.45    0.38    0.37    0.30    0.30
 1981 171     7    30     1    78.3    75.2     3.2    7.65   35.78    0.00    0.00    0.00    7.65    0.00    0.00    0.00   62.84    15.2    15.0    2.44    0.42    0.41    0.34    0.33    0.27    0.26    2.13    0.14    0.14    0.11    0.10    0.10    0.08    0.08    0.06    0.06   64.97   15.30   15.17    2.55    0.52    0.51    0.42    0.42    0.33    0.33
 1981 172     8    30     1    79.7    77.0     2.7    8.75   37.62    0.00    0.00    0.00    8.75    0.00    0.00    0.00   64.40    15.2    15.0    2.50    0.48    0.47    0.39    0.38    0.30    0.30    1.39    0.14    0.14    0.11    0.10    0.10    0.08    0.08    0.06    0.06   65.78   15.32   15.17    2.61    0.58    0.57    0.47    0.46    0.37    0.36
 1981 173     9    30     1    81.0    78.5     2.5    9.82   39.09    0.00    0.00    0.00    9.82    0.00    0.00    0.00   65.40    15.2    15.0    2.56    0.54    0.53    0.43    0.42    0.34    0.33    1.02    0.14    0.14    0.11    0.10    0.10    0.08    0.08    0.06    0.06   66.42   15.33   15.16    2.67    0.64    0.63    0.51    0.51    0.40    0.39
 1981 174    10    30     1    82.2    79.8     2.4   10.90   40.42    0.00    0.00    0.00   10.90    0.00    0.00    0.00   66.17    15.2    15.0    2.63    0.60    0.58    0.48    0.47    0.37    0.36    0.78    0.14    0.14    0.11    0.10    0.10    0.08    0.08    0.06    0.06   66.95   15.35   15.16    2.74    0.70    0.69    0.56    0.55    0.43    0.42
 1981 175    11    30     1    83.3    81.0     2.3   11.97   41.66    0.00    0.00    0.00   11.97    0.00    0.00    0.00   66.78    15.2    15.0    2.69    0.66    0.64    0.52    0.51    0.40    0.39    0.64    0.14    0.14    0.11    0.10    0.10    0.08    0.08    0.06    0.06   67.42   15.36   15.16    2.80    0.76    0.74    0.60    0.59    0.47    0.46
 1981 176    12    30     1    84.6    82.2     2.3   13.03   42.90    0.00    0.00    0.00   13.03    0.00    0.00    0.00   61.30    18.3    15.0    2.75    0.71    0.70    0.56    0.55    0.43    0.42    0.73    0.14    0.14    0.11    0.10    0.10    0.08    0.08    0.06    0.06   62.04   18.43   15.15    2.86    0.82    0.80    0.65    0.64    0.50    0.49
 1981 177    13    30     1    85.8    83.5     2.2   14.10   44.21    0.00    0.00    0.00   14.10    0.00    0.00    0.00   62.05    18.3    15.0    2.81    0.77    0.76    0.61    0.60    0.47    0.46    0.51    0.16    0.14    0.11    0.10    0.10    0.08    0.08    0.06    0.06   62.55   18.44   15.15    2.92    0.87    0.86    0.69    0.68    0.53    0.52
 1981 178    14    30     1    86.9    84.8     2.1   15.19   45.46    0.00    0.00    0.00   15.19    0.00    0.00    0.00   62.66    18.3    15.0    2.87    0.83    0.81    0.66    0.64    0.50    0.49    0.34    0.15    0.14    0.11    0.10    0.10    0.08    0.08    0.06    0.06   63.00   18.44   15.15    2.98    0.93    0.92    0.74    0.73    0.56    0.55
 1981 179    15    30     1    87.8    85.7     2.1   16.25   46.59    0.00    0.00    0.00   16.25    0.17    0.00    0.00   62.98    18.2    15.0    2.93    0.89    0.87    0.70    0.69    0.53    0.52    0.25    0.15    0.14    0.11    0.10    0.10    0.08    0.08    0.06    0.06   63.22   18.39   15.13    3.04    0.99    0.97    0.78    0.77    0.60    0.58
 1981 180    16    30     1    88.5    86.5     2.0   17.26   47.66    0.00    0.00    0.00   17.26    0.49    0.00    0.00   61.52    18.9    14.9    2.99    0.94    0.93    0.74    0.73    0.56    0.55    0.18    0.13    0.13    0.11    0.10    0.10    0.08    0.09    0.06    0.07   61.70   19.07   15.06    3.10    1.05    1.03    0.83    0.81    0.63    0.62
 1981 181    17    30     1    89.0    87.0     2.0   18.28   48.72    0.00    0.00    0.00   18.28    1.02    0.00    0.00   61.40    18.8    14.9    3.05    1.00    0.98    0.79    0.77    0.60    0.58    0.16    0.12    0.13    0.11    0.10    0.10    0.08    0.09    0.06    0.07   61.56   18.90   14.98    3.16    1.10    1.09    0.87    0.86    0.66    0.65
 1981 182    18    30     1    88.8    86.8     2.0   19.30   49.75    0.00    0.00    0.00   19.30    2.21    0.00    0.00   60.61    18.4    14.6    3.10    1.06    1.04    0.83    0.82    0.63    0.61    0.15    0.12    0.12    0.11    0.10    0.10    0.08    0.09    0.06    0.07   60.76   18.56   14.77    3.22    1.16    1.14    0.92    0.90    0.69    0.68
 1981 183    19    30     1    89.3    87.3     2.0   20.28   50.73    0.00    0.00    0.00   20.28    2.68    0.00    0.00   60.59    18.3    14.5    3.16    1.11    1.09    0.87    0.86    0.66    0.64    0.14    0.12    0.12    0.11    0.11    0.11    0.09    0.09    0.07    0.07   60.72   18.39   14.66    3.27    1.22    1.20    0.96    0.94    0.72    0.71
 1981 184    20    30     1    89.7    87.8     2.0   21.24   51.71    0.00    0.00    0.00   21.24    3.22    0.00    0.00   55.99    20.3    14.4    3.21    1.17    1.14    0.92    0.90    0.69    0.67    0.12    0.11    0.12    0.11    0.11    0.11    0.09    0.09    0.07    0.07   56.11   20.46   14.50    3.32    1.27    1.25    1.00    0.98    0.75    0.74
 1981 185    21    30     1    90.0    88.1     2.0   22.21   52.68    0.00    0.00    0.00   22.21    3.87    0.00    0.00   48.29    23.9    14.2    3.27    1.22    1.20    0.96    0.94    0.72    0.70    0.14    0.11    0.12    0.11    0.11    0.11    0.09    0.09    0.07    0.07   48.43   23.97   14.36    3.37    1.33    1.30    1.04    1.03    0.79    0.77
 1981 186    22    30     1    90.3    88.4     2.0   23.18   53.62    0.00    0.00    0.00   23.18    4.54    0.00    0.00   53.56    22.5    11.8    3.10    1.26    1.23    0.99    0.98    0.75    0.73    0.14    0.13    0.11    0.11    0.11    0.11    0.09    0.09    0.07    0.07   53.71   22.58   11.89    3.21    1.37    1.34    1.08    1.06    0.81    0.80
 1981 187    23    30     1    90.2    88.2     2.0   24.12   54.56    0.00    0.00    0.00   24.12    5.63    0.00    0.00   58.42    20.5     9.9    2.96    1.30    1.27    1.03    1.01    0.77    0.76    0.14    0.13    0.11    0.11    0.11    0.11    0.09    0.09    0.07    0.07   58.57   20.66   10.03    3.07    1.41    1.37    1.11    1.10    0.84    0.83
 1981 188    24    30     1    89.7    87.7     2.0   25.07   55.53    0.00    0.00    0.00   25.07    7.09    0.00    0.00   57.55    20.0     9.7    3.00    1.36    1.32    1.07    1.05    0.80    0.79    0.14    0.12    0.10    0.10    0.11    0.11    0.09    0.09    0.07    0.07   57.69   20.13    9.84    3.11    1.46    1.43    1.16    1.14    0.87    0.86
 1981 189    25    30     1    89.4    87.5     1.9   26.04   56.54    0.00    0.00    0.00   26.04    8.29    0.00    0.00   57.11    19.5     9.6    3.04    1.42    1.38    1.12    1.10    0.84    0.82    0.12    0.11    0.10    0.10    0.11    0.11    0.09    0.09    0.07    0.07   57.23   19.61    9.65    3.14    1.52    1.48    1.20    1.18    0.90    0.89
 1981 190    26    30     1    89.3    87.4     1.9   26.98   57.52    0.00    0.00    0.00   26.98    9.36    0.00    0.00   56.99    19.0     9.3    3.06    1.47    1.43    1.16    1.14    0.87    0.85    0.11    0.10    0.09    0.10    0.11    0.11    0.09    0.09    0.07    0.07   57.10   19.05    9.43    3.16    1.58    1.54    1.24    1.23    0.93    0.92
 1981 191    27    30     1    89.5    87.6     1.9   27.90   58.45    0.00    0.00    0.00   27.90   10.07    0.00    0.00   41.74    26.3     9.1    3.07    1.53    1.48    1.20    1.18    0.90    0.88    0.10    0.09    0.09    0.10    0.11    0.11    0.09    0.09    0.07    0.07   41.84   26.36    9.21    3.17    1.63    1.59    1.29    1.27    0.96    0.95
 1981 192    28    30     1    89.2    87.3     1.9   28.84   59.34    0.00    0.00    0.00   28.84   11.30    0.00    0.00   24.40    28.7    18.6    3.51    1.58    1.54    1.24    1.22    0.93    0.91    0.13    0.11    0.09    0.09    0.11    0.11    0.09    0.09    0.07    0.07   24.53   28.80   18.71    3.60    1.69    1.64    1.33    1.31    1.00    0.98
 1981 193    29    30     1    88.6    86.6     2.0   29.78   60.21    0.00    0.00    0.00   29.78   12.90    0.00    0.00   13.65    20.5    27.2    8.02    2.60    1.62    1.28    1.26    0.96    0.94    0.16    0.13    0.12    0.10    0.11    0.11    0.09    0.09    0.07    0.07   13.81   20.63   27.29    8.11    2.71    1.73    1.36    1.35    1.02    1.01
 1981 194    30    30     1    87.4    85.3     2.1   30.71   61.03    0.00    0.00    0.00   30.71   14.91    0.08    0.00   14.00    17.5    20.7    9.21    3.98    2.01    1.45    1.33    1.00    0.98    0.18    0.16    0.15    0.11    0.12    0.11    0.09    0.09    0.07    0.07   14.18   17.70   20.82    9.32    4.09    2.12    1.54    1.42    1.07    1.05
 1981 195    31    30     1    85.2    83.1     2.1   31.64   61.95    0.00    0.00    0.00   31.64   18.01    0.08    0.00   16.13    16.0    17.4    8.91    4.11    2.09    1.50    1.37    1.03    1.01    0.17    0.16    0.15    0.11    0.12    0.11    0.09    0.09    0.07    0.07   16.30   16.20   17.53    9.03    4.23    2.20    1.59    1.46    1.10    1.08
 1981 196    32    30     1    83.7    81.6     2.1   32.59   62.91    0.00    0.00    0.00   32.59   20.52    0.08    0.00   17.70    15.1    15.6    8.50    4.10    2.12    1.53    1.41    1.06    1.04    0.16    0.15    0.15    0.12    0.12    0.11    0.09    0.09    0.07    0.07   17.86   15.24   15.74    8.61    4.22    2.23    1.62    1.50    1.12    1.10
 1981 197    33    30     1    81.9    79.8     2.1   33.55   63.89    0.00    0.00    0.00   33.55   23.25    0.08    0.00   17.01    14.2    14.7    8.28    4.15    2.17    1.57    1.45    1.09    1.07    0.15    0.15    0.15    0.12    0.11    0.11    0.09    0.09    0.07    0.07   17.16   14.33   14.81    8.40    4.27    2.28    1.66    1.54    1.15    1.13
 1981 198    34    30     1    79.7    77.7     2.1   34.51   64.87    0.00    0.00    0.00   34.51   26.35    0.08    0.00   13.01    14.8    13.5    8.00    4.21    2.22    1.61    1.49    1.12    1.10    0.14    0.14    0.15    0.12    0.11    0.11    0.09    0.09    0.07    0.07   13.15   14.97   13.69    8.12    4.32    2.33    1.70    1.58    1.18    1.16
 1981 199    35    30     1    77.8    75.7     2.1   35.48   65.85    0.00    0.00    0.00   35.48   29.26    0.08    0.00    8.44    14.0    15.1    8.10    4.26    2.28    1.65    1.53    1.15    1.13    0.15    0.14    0.14    0.12    0.11    0.11    0.09    0.09    0.07    0.07    8.59   14.15   15.21    8.22    4.37    2.38    1.74    1.62    1.21    1.19
 1981 200    36    30     1    75.2    73.1     2.1   36.45   66.80    0.00    0.00    0.00   36.45   32.83    0.08    0.00    8.40    12.1    13.0    8.13    4.43    2.35    1.69    1.57    1.18    1.15    0.17    0.15    0.14    0.12    0.11    0.11    0.09    0.09    0.07    0.07    8.57   12.26   13.12    8.25    4.54    2.46    1.78    1.65    1.24    1.22
 1981 201    37    30     1    73.1    71.0     2.1   37.41   67.75    0.00    0.00    0.00   37.41   35.89    0.08    0.00    7.05    11.1    12.4    7.94    4.49    2.38    1.73    1.60    1.20    1.18    0.16    0.15    0.15    0.12    0.11    0.11    0.09    0.09    0.07    0.07    7.21   11.24   12.53    8.06    4.60    2.49    1.82    1.69    1.27    1.25
 1981 202    38    30     1    71.4    69.3     2.1   38.36   68.68    0.00    0.00    0.00   38.36   38.52    0.08    0.00    6.82     9.9    10.9    7.75    4.70    2.51    1.80    1.66    1.24    1.21    0.18    0.15    0.15    0.12    0.11    0.11    0.09    0.09    0.07    0.07    7.00   10.01   11.05    7.87    4.81    2.62    1.89    1.74    1.31    1.28
 1981 203    39    30     1    68.9    66.8     2.1   39.30   69.63    0.00    0.00    0.00   39.30   41.95    0.08    0.00    7.02     8.8     9.5    7.19    4.69    2.54    1.84    1.69    1.27    1.24    0.16    0.15    0.15    0.12    0.11    0.11    0.09    0.09    0.07    0.07    7.18    8.96    9.65    7.31    4.80    2.65    1.93    1.78    1.33    1.30
 1981 204    40    30     1    67.4    65.3     2.1   40.24   70.56    0.00    0.00    0.00   40.24   44.37    0.08    0.00    3.80     7.5    10.0    7.56    4.97    2.64    1.89    1.73    1.29    1.26    0.16    0.15    0.15    0.12    0.11    0.11    0.09    0.09    0.07    0.07    3.96    7.62   10.11    7.68    5.08    2.75    1.98    1.82    1.36    1.33
 1981 205    41    30     1    64.8    62.6     2.2   41.17   71.43    0.00    0.00    0.00   41.17   47.92    0.08    0.00    2.60     5.6     8.0    7.33    5.52    2.90    1.99    1.79    1.33    1.29    0.18    0.16    0.16    0.12    0.12    0.12    0.09    0.09    0.07    0.07    2.77    5.72    8.12    7.45    5.64    3.02    2.08    1.88    1.40    1.36
 1981 206    42    30     1    62.1    59.9     2.2   42.11   72.29    0.00    0.00    0.00   42.11   51.52    0.08    0.00    1.84     4.0     6.0    6.58    5.94    3.25    2.15    1.87    1.37    1.34    0.19    0.17    0.18    0.12    0.13    0.12    0.09    0.09    0.07    0.07    2.03    4.19    6.19    6.70    6.07    3.37    2.24    1.96    1.44    1.40
 1981 207    43    30     1    60.7    58.4     2.3   43.05   73.15    0.00    0.00    0.00   43.05   53.91    0.08    0.00    1.33     3.0     4.7    5.87    6.19    3.62    2.36    1.96    1.41    1.38    0.20    0.18    0.19    0.13    0.13    0.13    0.09    0.09    0.08    0.07    1.53    3.20    4.90    6.00    6.32    3.75    2.45    2.05    1.49    1.45
 1981 208    44    30     1    60.3    57.9     2.4   43.96   73.98    0.00    0.00    0.00   43.96   55.17    0.08    0.00    1.12     2.5     4.0    5.35    6.25    3.92    2.57    2.06    1.46    1.41    0.21    0.18    0.20    0.13    0.14    0.14    0.10    0.10    0.08    0.08    1.33    2.69    4.22    5.48    6.39    4.06    2.67    2.16    1.54    1.49
 1981 209    45    30     1    57.5    55.1     2.5   44.87   74.82    0.06    0.00    0.00   44.87   58.75    0.14    0.00    0.82     1.7     2.8    4.27    6.10    4.11    2.75    2.16    1.50    1.45    0.21    0.18    0.20    0.13    0.14    0.14    0.10    0.10    0.08    0.08    1.04    1.87    2.97    4.40    6.24    4.25    2.85    2.26    1.59    1.53
 1981 210    46    30     1    55.9    53.4     2.5   45.78   75.67    0.11    0.00    0.00   45.78   61.09    0.26    0.00    0.54     1.2     2.1    3.53    5.93    4.28    2.92    2.26    1.55    1.49    0.21    0.17    0.20    0.13    0.14    0.14    0.10    0.10    0.09    0.08    0.75    1.34    2.26    3.66    6.07    4.42    3.02    2.36    1.63    1.57
 1981 211    47    60     2    69.9    53.3    16.6   46.67   76.48    0.17    0.00    0.00   46.67   61.78    0.42    0.00    0.35     0.9     1.5    3.08    5.80    4.60    3.20    2.40    1.60    1.52   23.61    0.18    0.21    0.13    0.14    0.14    0.10    0.10    0.09    0.09   23.95    1.04    1.74    3.21    5.94    4.74    3.30    2.50    1.69    1.61
 1981 212    48    60     2    76.0    56.8    19.2   47.55   80.86    0.25    0.00    0.00   47.55   63.74    0.62    0.00    6.33     0.7     1.3    2.69    5.47    4.73    3.45    2.56    1.66    1.56   27.71    0.19    0.21    0.14    0.15    0.15    0.10    0.10    0.09    0.09   34.05    0.93    1.55    2.83    5.62    4.88    3.55    2.66    1.75    1.65
 1981 213    49    60     2    79.1    61.6    17.4   48.44   86.52    0.35    0.00    0.00   48.44   65.15    0.85    0.00   12.84     1.2     1.4    2.50    5.20    4.76    3.63    2.70    1.72    1.60   22.28    1.44    0.21    0.14    0.15    0.15    0.10    0.10    0.09    0.09   35.12    2.67    1.59    2.64    5.35    4.91    3.73    2.80    1.81    1.70
 1981 214    50    60     2    78.7    65.1    13.6   49.35   91.85    0.45    0.00    0.00   49.35   68.19    1.13    0.00   11.13     4.0     2.4    2.14    5.03    4.91    3.89    2.89    1.79    1.65   14.83    1.69    0.65    0.13    0.15    0.15    0.10    0.10    0.09    0.09   25.97    5.66    3.00    2.28    5.18    5.06    3.99    2.99    1.89    1.74
 1981 215    51    60     2    78.7    67.1    11.6   50.25   95.87    0.61    0.00    0.00   50.25   68.19    2.98    0.00   14.36     4.4     2.7    2.08    4.37    4.58    3.98    3.10    1.91    1.69   10.62    1.61    1.36    0.22    0.15    0.15    0.10    0.10    0.10    0.09   24.98    5.97    4.08    2.30    4.52    4.74    4.08    3.21    2.01    1.79
 1981 216    52    60     2    76.9    69.3     7.7   51.17  100.49    0.66    0.00    0.00   51.17   70.74    3.59    0.00   17.35     4.5     3.0    2.03    4.19    4.48    3.99    3.17    1.96    1.73    5.36    1.05    1.01    0.28    0.19    0.15    0.10    0.10    0.09    0.09   22.71    5.58    4.02    2.32    4.38    4.63    4.09    3.27    2.06    1.82
 1981 217    53    60     2    78.1    72.4     5.6   52.09  103.78    0.67    0.00    0.00   52.09   70.74    3.69    0.00   20.16     4.9     3.4    2.17    4.22    4.48    4.00    3.19    2.00    1.76    3.00    0.72    0.73    0.27    0.19    0.14    0.10    0.10    0.09    0.09   23.16    5.65    4.12    2.44    4.41    4.62    4.10    3.29    2.09    1.85
 1981 218    54    60     2    79.1    74.8     4.3   53.03  106.20    0.67    0.00    0.00   53.03   70.74    3.69    0.00   10.83     8.3     6.6    2.85    4.32    4.55    4.05    3.24    2.03    1.79    1.67    0.49    0.51    0.23    0.18    0.14    0.10    0.10    0.09    0.09   12.51    8.78    7.07    3.07    4.50    4.69    4.15    3.34    2.12    1.88
 1981 219    55    60     2    79.8    76.0     3.7   53.96  107.78    0.68    0.00    0.00   53.96   70.74    4.05    0.00   10.90     7.9     6.4    3.26    4.33    4.55    4.15    3.37    2.10    1.84    1.20    0.39    0.41    0.20    0.17    0.14    0.09    0.10    0.09    0.09   12.10    8.27    6.84    3.45    4.50    4.69    4.25    3.46    2.19    1.93
 1981 220    56    60     2    80.8    77.6     3.1   54.90  109.35    0.68    0.00    0.00   54.90   70.74    4.05    0.00   12.23     7.9     6.4    3.34    4.40    4.58    4.18    3.40    2.13    1.87    0.70    0.28    0.30    0.17    0.15    0.14    0.09    0.09    0.09    0.09   12.93    8.22    6.68    3.51    4.55    4.72    4.27    3.49    2.22    1.95
 1981 221    57    60     2    81.7    78.9     2.8   55.85  110.66    0.68    0.00    0.00   55.85   70.74    4.05    0.00   13.35     7.9     6.3    3.40    4.46    4.62    4.20    3.42    2.16    1.89    0.44    0.22    0.23    0.15    0.13    0.13    0.09    0.09    0.09    0.09   13.79    8.16    6.50    3.55    4.59    4.75    4.30    3.52    2.24    1.98
 1981 222    58    60     2    82.7    80.2     2.5   56.80  111.90    0.68    0.00    0.00   56.80   70.74    4.05    0.00   14.44     7.9     6.1    3.46    4.51    4.66    4.23    3.45    2.19    1.92    0.30    0.18    0.19    0.14    0.12    0.12    0.09    0.09    0.08    0.09   14.73    8.07    6.31    3.60    4.63    4.78    4.32    3.55    2.27    2.01
 1981 223    59    60     2    83.6    81.3     2.4   57.73  113.02    0.69    0.00    0.00   57.73   70.74    4.05    0.00   13.29     8.6     6.2    3.52    4.56    4.72    4.27    3.50    2.22    1.95    0.21    0.15    0.16    0.13    0.12    0.12    0.09    0.09    0.07    0.09   13.50    8.79    6.35    3.65    4.68    4.83    4.36    3.58    2.30    2.04
 1981 224    60    60     2    84.5    82.3     2.3   58.66  114.04    0.69    0.00    0.00   58.66   70.74    4.05    0.00    8.61    10.2     8.2    3.58    4.62    4.77    4.31    3.54    2.26    1.98    0.18    0.14    0.14    0.13    0.11    0.11    0.09    0.09    0.07    0.09    8.79   10.29    8.33    3.71    4.73    4.89    4.40    3.62    2.33    2.06
 1981 225    61    60     2    85.5    83.2     2.2   59.61  115.01    0.69    0.00    0.00   59.61   70.74    4.05    0.00    6.18     9.6     9.7    4.45    4.66    4.81    4.34    3.57    2.28    2.02    0.19    0.15    0.15    0.12    0.11    0.11    0.09    0.09    0.07    0.08    6.37    9.75    9.83    4.57    4.77    4.92    4.43    3.66    2.35    2.09
 1981 226    62    60     2    86.4    84.2     2.2   60.54  115.94    0.69    0.00    0.00   60.54   70.74    4.05    0.00    5.83     9.0     9.7    5.11    4.78    4.84    4.37    3.60    2.31    2.05    0.20    0.16    0.16    0.12    0.11    0.11    0.09    0.09    0.07    0.07    6.03    9.16    9.83    5.23    4.89    4.95    4.45    3.69    2.38    2.12
 1981 227    63    60     2    87.3    85.1     2.2   61.47  116.88    0.69    0.00    0.00   61.47   70.74    4.05    0.00    6.20     8.6     8.9    5.39    5.01    4.92    4.43    3.66    2.35    2.08    0.20    0.16    0.16    0.12    0.11    0.11    0.09    0.09    0.07    0.07    6.40    8.78    9.09    5.51    5.12    5.03    4.52    3.75    2.42    2.15
 1981 228    64    60     2    88.3    86.1     2.2   62.40  117.83    0.69    0.00    0.00   62.40   70.74    4.05    0.00    6.23     8.8     8.9    5.48    5.04    4.95    4.46    3.69    2.37    2.11    0.18    0.16    0.16    0.12    0.11    0.11    0.09    0.09    0.07    0.07    6.40    8.97    9.10    5.60    5.15    5.06    4.54    3.78    2.44    2.18
 1981 229    65    60     2    89.2    87.0     2.2   63.32  118.76    0.69    0.00    0.00   63.32   70.74    4.05    0.00    5.92     8.9     9.2    5.65    5.08    4.99    4.48    3.72    2.40    2.14    0.17    0.16    0.16    0.12    0.11    0.11    0.09    0.09    0.07    0.07    6.09    9.04    9.36    5.77    5.19    5.10    4.57    3.81    2.47    2.20
 1981 230    66    60     2    90.1    87.9     2.2   64.26  119.73    0.69    0.00    0.00   64.26   70.74    4.05    0.00    5.49     8.8     9.6    5.93    5.11    5.02    4.51    3.74    2.42    2.16    0.17    0.16    0.15    0.12    0.11    0.11    0.09    0.09    0.07    0.07    5.65    8.99    9.76    6.05    5.22    5.13    4.59    3.83    2.49    2.23
 1981 231    67    60     2    91.1    88.9     2.1   65.21  120.72    0.69    0.00    0.00   65.21   70.74    4.05    0.00    6.05     8.7     9.3    6.15    5.19    5.04    4.53    3.77    2.45    2.19    0.18    0.15    0.15    0.12    0.11    0.11    0.09    0.09    0.07    0.07    6.23    8.83    9.44    6.27    5.30    5.15    4.62    3.86    2.52    2.26
 1981 232    68    60     2    92.0    89.9     2.1   66.18  121.71    0.69    0.00    0.00   66.18   70.74    4.05    0.00    6.36     9.0     9.2    6.13    5.23    5.07    4.55    3.80    2.47    2.22    0.16    0.15    0.15    0.12    0.11    0.11    0.09    0.09    0.07    0.07    6.52    9.18    9.33    6.24    5.33    5.18    4.64    3.89    2.54    2.28
 1981 233    69    60     2    93.0    90.9     2.1   67.15  122.70    0.69    0.00    0.00   67.15   70.74    4.05    0.00    7.14     9.1     9.0    6.11    5.26    5.10    4.57    3.83    2.50    2.24    0.16    0.15    0.15    0.12    0.11    0.11    0.09    0.09    0.07    0.07    7.30    9.30    9.10    6.23    5.37    5.21    4.66    3.91    2.56    2.31
 1981 234    70    60     2    94.0    91.9     2.1   68.12  123.69    0.69    0.00    0.00   68.12   70.74    4.05    0.00    4.19     8.3    10.7    7.19    5.44    5.13    4.59    3.85    2.52    2.27    0.15    0.15    0.14    0.12    0.11    0.11    0.09    0.09    0.07    0.07    4.34    8.45   10.84    7.31    5.55    5.23    4.68    3.94    2.59    2.34
 1981 235    71    60     2    94.9    92.8     2.1   69.09  124.63    0.69    0.00    0.00   69.09   70.74    4.05    0.00    4.35     7.5     9.3    7.33    6.00    5.36    4.77    3.98    2.60    2.33    0.18    0.17    0.16    0.12    0.11    0.11    0.09    0.09    0.07    0.07    4.53    7.66    9.41    7.45    6.11    5.47    4.86    4.07    2.66    2.39
 1981 236    72    60     2    94.8    92.7     2.1   70.04  125.59    0.69    0.00    0.00   70.04   71.83    4.05    0.00    4.80     7.2     8.7    7.28    6.01    5.37    4.79    4.01    2.62    2.35    0.16    0.16    0.15    0.12    0.11    0.11    0.09    0.09    0.07    0.07    4.96    7.33    8.81    7.40    6.11    5.48    4.88    4.10    2.69    2.42
 1981 237    73    60     2    94.6    92.5     2.1   70.97  126.52    0.69    0.00    0.00   70.97   72.91    4.05    0.00    5.25     6.9     8.3    7.09    6.01    5.39    4.82    4.04    2.65    2.38    0.16    0.16    0.15    0.12    0.11    0.11    0.09    0.09    0.07    0.07    5.41    7.09    8.41    7.21    6.12    5.50    4.90    4.13    2.71    2.44
 1981 238    74    60     2    93.9    91.8     2.1   71.90  127.44    0.69    0.00    0.00   71.90   74.54    4.05    0.00    3.13     6.7     8.6    7.17    6.02    5.41    4.85    4.08    2.68    2.41    0.16    0.16    0.15    0.12    0.11    0.11    0.09    0.09    0.07    0.07    3.29    6.81    8.74    7.29    6.13    5.52    4.94    4.17    2.74    2.47
 1981 239    75    60     2    93.7    91.6     2.1   72.83  128.35    0.69    0.00    0.00   72.83   75.67    4.05    0.00    3.23     6.0     7.7    7.16    6.24    5.50    4.91    4.12    2.70    2.43    0.18    0.16    0.15    0.12    0.11    0.11    0.09    0.09    0.07    0.07    3.41    6.19    7.89    7.28    6.35    5.61    5.00    4.21    2.77    2.50
 1981 240    76    60     2    92.9    90.8     2.1   73.77  129.30    0.69    0.00    0.00   73.77   77.42    4.05    0.00    3.57     5.7     7.2    6.82    6.21    5.49    4.93    4.15    2.72    2.46    0.17    0.15    0.15    0.12    0.11    0.11    0.09    0.09    0.07    0.07    3.74    5.85    7.32    6.94    6.32    5.60    5.02    4.24    2.79    2.52
 1981 241    77    60     2    92.1    90.0     2.1   74.72  130.26    0.69    0.00    0.00   74.72   79.12    4.05    0.00    3.99     5.3     6.6    6.49    6.19    5.49    4.95    4.17    2.75    2.48    0.16    0.15    0.15    0.12    0.11    0.11    0.09    0.09    0.07    0.07    4.15    5.49    6.80    6.61    6.30    5.60    5.04    4.26    2.81    2.55
 1981 242    78    60     2    91.7    89.7     2.1   75.66  131.24    0.69    0.00    0.00   75.66   80.49    4.05    0.00    2.07     5.0     7.2    6.60    6.20    5.51    4.99    4.21    2.78    2.51    0.15    0.14    0.14    0.12    0.11    0.11    0.09    0.09    0.07    0.07    2.23    5.19    7.36    6.72    6.31    5.62    5.08    4.30    2.84    2.58
 1981 243    79    60     2    91.7    89.6     2.1   76.63  132.18    0.69    0.00    0.00   76.63   81.45    4.05    0.00    2.22     4.5     6.4    6.74    6.38    5.53    5.02    4.24    2.80    2.54    0.18    0.15    0.15    0.12    0.11    0.11    0.09    0.09    0.07    0.07    2.40    4.70    6.53    6.86    6.49    5.63    5.10    4.33    2.87    2.61
 1981 244    80    60     2    91.6    89.5     2.1   77.59  133.15    0.69    0.00    0.00   77.59   82.53    4.05    0.00    2.49     4.4     6.1    6.52    6.37    5.53    5.04    4.27    2.83    2.57    0.17    0.15    0.15    0.12    0.11    0.11    0.09    0.09    0.07    0.07    2.66    4.57    6.26    6.64    6.48    5.64    5.13    4.36    2.89    2.63
 1981 245    81    60     2    91.3    89.2     2.1   78.54  134.09    0.69    0.00    0.00   78.54   83.76    4.05    0.00    2.75     4.2     5.8    6.28    6.35    5.53    5.07    4.30    2.85    2.59    0.16    0.15    0.15    0.12    0.11    0.11    0.09    0.09    0.07    0.07    2.91    4.39    5.95    6.40    6.46    5.64    5.15    4.39    2.92    2.66
 1981 246    82    60     2    89.2    87.1     2.1   79.49  135.05    0.69    0.00    0.00   79.49   86.81    4.05    0.00    2.45     3.6     4.9    5.74    6.30    5.50    5.11    4.34    2.88    2.62    0.16    0.15    0.15    0.12    0.11    0.11    0.09    0.09    0.07    0.07    2.60    3.75    5.06    5.86    6.41    5.61    5.19    4.43    2.95    2.69
 1981 247    83    60     2    89.6    87.6     2.1   80.42  136.00    0.69    0.00    0.00   80.42   87.30    4.05    0.00    1.89     3.9     4.8    5.69    6.33    5.54    5.14    4.38    2.91    2.65    0.14    0.14    0.14    0.12    0.11    0.11    0.09    0.09    0.07    0.07    2.03    4.01    4.97    5.81    6.44    5.65    5.23    4.47    2.98    2.72
 1981 248    84    60     2    88.9    86.8     2.1   81.36  136.94    0.69    0.00    0.00   81.36   89.03    4.05    0.00    1.56     3.3     5.1    5.48    6.27    5.51    5.16    4.40    2.93    2.68    0.17    0.15    0.12    0.12    0.11    0.11    0.09    0.09    0.07    0.07    1.73    3.46    5.26    5.60    6.38    5.61    5.25    4.49    3.00    2.74
 1981 249    85    60     2    88.8    86.7     2.1   82.32  137.87    0.69    0.00    0.00   82.32   90.07    4.05    0.00    1.63     3.0     4.5    5.61    6.25    5.50    5.19    4.43    2.96    2.70    0.19    0.15    0.14    0.12    0.11    0.11    0.09    0.09    0.07    0.07    1.81    3.14    4.67    5.73    6.36    5.61    5.27    4.52    3.02    2.77
 1981 250    86    60     2    88.1    86.0     2.1   83.30  138.86    0.69    0.00    0.00   83.30   91.76    4.05    0.00    1.14     2.5     4.2    5.59    6.31    5.47    5.21    4.45    2.98    2.73    0.17    0.15    0.15    0.12    0.11    0.11    0.09    0.09    0.07    0.07    1.31    2.61    4.38    5.71    6.42    5.58    5.29    4.54    3.05    2.79
 1981 251    87    60     2    87.7    85.5     2.1   84.27  139.79    0.69    0.00    0.00   84.27   93.11    4.05    0.00    1.18     2.1     3.4    5.07    6.45    5.75    5.36    4.53    3.01    2.75    0.19    0.17    0.16    0.12    0.11    0.11    0.09    0.09    0.07    0.07    1.37    2.27    3.61    5.19    6.56    5.86    5.45    4.62    3.07    2.82
 1981 252    88    60     2    86.7    84.6     2.1   85.24  140.78    0.69    0.00    0.00   85.24   95.06    4.05    0.00    1.30     1.9     3.1    4.68    6.36    5.69    5.38    4.56    3.03    2.78    0.17    0.16    0.16    0.12    0.11    0.11    0.09    0.09    0.07    0.07    1.47    2.04    3.29    4.80    6.47    5.79    5.46    4.65    3.09    2.84
 1981 253    89    60     2    86.3    84.3     2.1   86.22  141.78    0.69    0.00    0.00   86.22   96.38    4.05    0.00    1.45     1.8     3.0    4.42    6.30    5.65    5.39    4.58    3.05    2.80    0.16    0.16    0.16    0.12    0.11    0.11    0.09    0.09    0.07    0.07    1.62    1.94    3.18    4.54    6.41    5.76    5.48    4.67    3.12    2.87
 1981 254    90    60     2    86.1    84.1     2.1   87.21  142.78    0.69    0.00    0.00   87.21   97.56    4.05    0.00    1.18     1.8     2.8    4.21    6.28    5.64    5.43    4.62    3.08    2.83    0.16    0.15    0.16    0.12    0.11    0.11    0.09    0.09    0.07    0.07    1.34    1.95    2.95    4.33    6.39    5.75    5.52    4.71    3.15    2.90
 1981 255    91    60     2    86.1    84.0     2.1   88.19  143.76    0.69    0.00    0.00   88.19   98.61    4.05    0.00    1.23     1.7     2.7    4.03    6.24    5.62    5.46    4.65    3.11    2.86    0.17    0.15    0.15    0.12    0.11    0.11    0.09    0.09    0.07    0.07    1.40    1.90    2.90    4.15    6.35    5.72    5.54    4.74    3.17    2.93
 1981 256    92    60     2    85.1    83.0     2.1   89.17  144.74    0.69    0.00    0.00   89.17  100.57    4.05    0.00    1.27     1.5     2.5    3.67    6.13    5.54    5.47    4.67    3.13    2.89    0.16    0.15    0.14    0.12    0.11    0.11    0.09    0.09    0.07    0.07    1.43    1.69    2.61    3.79    6.24    5.65    5.56    4.76    3.19    2.95
 1981 257    93    60     2    84.9    82.9     2.1   90.12  145.69    0.69    0.00    0.00   90.12  101.67    4.05    0.00    1.06     1.5     2.3    3.49    6.11    5.52    5.51    4.71    3.16    2.91    0.16    0.15    0.14    0.12    0.11    0.11    0.09    0.09    0.07    0.07    1.22    1.67    2.41    3.61    6.22    5.63    5.60    4.80    3.22    2.98
 1981 258    94    60     2    84.8    82.7     2.1   91.04  146.60    0.69    0.00    0.00   91.04  102.72    4.05    0.00    0.85     1.4     2.4    3.35    6.06    5.49    5.53    4.74    3.18    2.94    0.16    0.16    0.13    0.12    0.11    0.11    0.09    0.09    0.07    0.07    1.02    1.58    2.55    3.47    6.17    5.60    5.62    4.82    3.25    3.01
 1981 259    95    60     2    83.7    81.6     2.1   91.96  147.50    0.69    0.00    0.00   91.96  104.72    4.05    0.00    0.70     1.1     2.1    3.09    5.93    5.39    5.54    4.76    3.20    2.96    0.19    0.16    0.14    0.12    0.11    0.11    0.09    0.09    0.07    0.07    0.88    1.31    2.21    3.21    6.04    5.51    5.63    4.84    3.27    3.03
 1981 260    96    60     2    83.1    81.0     2.1   92.89  148.41    0.69    0.00    0.00   92.89  106.24    4.05    0.00    0.68     1.0     1.7    2.95    5.83    5.32    5.56    4.78    3.22    2.99    0.20    0.16    0.15    0.12    0.11    0.11    0.09    0.09    0.07    0.07    0.88    1.14    1.89    3.07    5.94    5.43    5.65    4.87    3.29    3.05
 1981 261    97    60     2    82.4    80.3     2.1   93.84  149.36    0.69    0.00    0.00   93.84  107.92    4.05    0.00    0.62     0.9     1.6    2.70    5.70    5.23    5.57    4.80    3.24    3.01    0.18    0.16    0.16    0.12    0.11    0.11    0.09    0.09    0.07    0.07    0.80    1.02    1.75    2.82    5.81    5.34    5.66    4.88    3.31    3.08
 1981 262    98    60     2    82.4    80.3     2.1   94.79  150.31    0.69    0.00    0.00   94.79  108.85    4.05    0.00    0.37     0.7     1.3    2.59    5.88    5.30    5.59    4.82    3.26    3.03    0.19    0.16    0.16    0.12    0.11    0.11    0.09    0.09    0.07    0.07    0.56    0.83    1.43    2.71    5.99    5.41    5.67    4.91    3.33    3.10
 1981 263    99    60     2    81.8    79.6     2.2   95.75  151.20    0.69    0.00    0.00   95.75  110.46    4.05    0.00    0.36     0.5     0.9    2.04    5.23    5.35    5.75    5.08    3.45    3.14    0.20    0.18    0.18    0.13    0.12    0.11    0.09    0.09    0.07    0.07    0.56    0.69    1.11    2.16    5.35    5.46    5.84    5.17    3.52    3.20
 1981 264   100    60     2    80.9    78.7     2.2   96.71  152.20    0.69    0.00    0.00   96.71  112.30    4.05    0.00    0.35     0.4     0.8    1.74    5.06    5.24    5.76    5.10    3.47    3.16    0.18    0.17    0.17    0.12    0.11    0.11    0.09    0.09    0.07    0.07    0.53    0.59    0.97    1.86    5.17    5.35    5.85    5.19    3.54    3.23
 1981 265   101    60     2    80.3    78.2     2.1   97.68  153.19    0.69    0.00    0.00   97.68  113.83    4.05    0.00    0.32     0.4     0.7    1.55    4.90    5.16    5.77    5.11    3.49    3.18    0.18    0.16    0.17    0.12    0.11    0.11    0.09    0.09    0.07    0.07    0.50    0.54    0.89    1.67    5.01    5.27    5.86    5.20    3.56    3.25
 1981 266   102    60     2    80.3    78.1     2.2   98.65  154.14    0.69    0.00    0.00   98.65  114.80    4.05    0.00    0.32     0.4     0.7    1.42    4.66    5.05    5.82    5.21    3.55    3.27    0.19    0.16    0.17    0.12    0.11    0.12    0.09    0.09    0.07    0.07    0.52    0.53    0.84    1.55    4.77    5.17    5.90    5.29    3.62    3.34
 1981 267   103    60     2    79.6    77.5     2.1   99.63  155.15    0.69    0.00    0.00   99.63  116.42    4.05    0.00    0.38     0.3     0.6    1.23    4.50    4.88    5.83    5.22    3.57    3.29    0.18    0.16    0.16    0.12    0.11    0.11    0.09    0.09    0.07    0.07    0.56    0.50    0.74    1.35    4.61    5.00    5.91    5.31    3.64    3.36
 1981 268   104    60     2    79.0    76.9     2.1  100.62  156.16    0.69    0.00    0.00  100.62  118.01    4.05    0.00    0.39     0.3     0.5    1.08    4.33    4.71    5.83    5.23    3.59    3.31    0.17    0.16    0.16    0.12    0.11    0.11    0.09    0.09    0.07    0.07    0.55    0.49    0.66    1.20    4.44    4.82    5.92    5.32    3.66    3.38
 1981 269   105    60     2    78.6    76.6     2.1  101.62  157.18    0.69    0.00    0.00  101.62  119.40    4.05    0.00    0.28     0.3     0.4    0.89    4.19    4.56    5.87    5.28    3.62    3.34    0.16    0.16    0.16    0.12    0.11    0.11    0.09    0.09    0.07    0.07    0.44    0.51    0.56    1.01    4.30    4.67    5.96    5.36    3.69    3.41
 1981 270   106    60     2    79.6    77.5     2.1  102.59  158.13    0.69    0.00    0.00  102.59  119.40    4.05    0.00    0.36     0.4     0.5    1.02    4.23    4.61    5.89    5.30    3.64    3.37    0.18    0.16    0.16    0.12    0.11    0.11    0.09    0.09    0.07    0.07    0.54    0.58    0.69    1.14    4.34    4.72    5.98    5.38    3.71    3.43
 1981 271   107    60     2    80.6    78.5     2.1  103.55  159.10    0.69    0.00    0.00  103.55  119.40    4.05    0.00    0.52     0.5     0.7    1.15    4.27    4.66    5.90    5.31    3.66    3.39    0.17    0.16    0.16    0.12    0.11    0.11    0.09    0.09    0.07    0.07    0.68    0.65    0.85    1.28    4.38    4.77    5.99    5.40    3.72    3.46
 1981 272   108    60     2    81.5    79.4     2.1  104.51  160.05    0.69    0.00    0.00  104.51  119.40    4.05    0.00    0.68     0.6     0.8    1.29    4.31    4.71    5.90    5.32    3.68    3.41    0.16    0.16    0.16    0.12    0.11    0.11    0.09    0.09    0.07    0.07    0.85    0.73    1.00    1.41    4.42    4.82    5.99    5.41    3.74    3.48

*DSSAT Cropping System Model Ver. 4.7.5.008 -release  JAN 07, 2021 20:33:24

*RUN   2        : ERiMA DCC1                MZCER047 ETMZmelk    1
 MODEL          : MZCER047 - Maize
 EXPERIMENT     : ETMZmelk SN MELKSSAL
 DATA PATH      : C:\IRI\Python_Dash\ET_DSS_hist\TEST\
 TREATMENT  1   : ERiMA DCC1                MZCER047
  
!                                                                                                                              NO3 (ppm) at soil dep. (cm):                                                    NH4 (ppm) at soil dep. (cm):                                                    Total Inorganic N @dep(ppm):
!                                                                                                                               0-5    5-15   15-20   20-35   35-50   50-65   65-81   81-97  97-118 118-200     0-5    5-15   15-20   20-35   35-50   50-65   65-81   81-97  97-118 118-200     0-5    5-15   15-20   20-35   35-50   50-65   65-81   81-97  97-118 118-200
@YEAR DOY   DAS  NAPC  NI#M    NIAD    NITD    NHTD    NMNC    NITC    NDNC    NIMC    AMLC   NNMNC    NUCM    NLCC    TDFC    NI1D    NI2D    NI3D    NI4D    NI5D    NI6D    NI7D    NI8D    NI9D    NI10    NH1D    NH2D    NH3D    NH4D    NH5D    NH6D    NH7D    NH8D    NH9D    NH10    NT1D    NT2D    NT3D    NT4D    NT5D    NT6D    NT7D    NT8D    NT9D    NT10    
 1982 164     0     0     0    42.0    39.6     2.4    0.00    0.00    0.00    0.00    0.00    0.00    0.00    0.00    0.00   15.00    15.0    15.0    2.00    0.00    0.00    0.00    0.00    0.00    0.00    0.10    0.10    0.10    0.10    0.10    0.10    0.10    0.10    0.10    0.10   15.10   15.10   15.10    2.10    0.10    0.10    0.10    0.10    0.10    0.10
 1982 165     1     0     0    43.1    40.9     2.2    1.12    1.35    0.00    0.00    0.00    1.12    0.00    0.00    0.00   15.07    15.1    15.1    2.06    0.06    0.06    0.06    0.06    0.05    0.05    0.12    0.12    0.12    0.11    0.10    0.10    0.09    0.09    0.08    0.08   15.19   15.19   15.19    2.17    0.16    0.16    0.15    0.15    0.13    0.13
 1982 166     2    30     1    60.7    42.2    18.5    2.22    2.57    0.00    0.00    0.00    2.22    0.00    0.00    0.00   15.39    15.1    15.1    2.13    0.12    0.12    0.11    0.11    0.10    0.09   27.57    0.13    0.13    0.11    0.10    0.10    0.09    0.09    0.07    0.07   42.96   15.21   15.19    2.23    0.22    0.22    0.19    0.19    0.17    0.17
 1982 167     3    30     1    68.3    53.8    14.5    3.30   14.27    0.00    0.00    0.00    3.30    0.00    0.00    0.00   33.23    15.1    15.0    2.19    0.18    0.18    0.16    0.15    0.13    0.13   20.95    0.13    0.14    0.11    0.10    0.10    0.08    0.09    0.07    0.07   54.18   15.23   15.18    2.30    0.28    0.28    0.24    0.24    0.20    0.20
 1982 168     4    30     1    72.3    62.1    10.2    4.34   22.63    0.00    0.00    0.00    4.34    0.00    0.00    0.00   45.68    15.1    15.0    2.24    0.24    0.23    0.20    0.19    0.17    0.16   13.74    0.14    0.14    0.11    0.10    0.10    0.08    0.09    0.07    0.07   59.43   15.24   15.17    2.36    0.34    0.33    0.28    0.28    0.23    0.23
 1982 169     5    30     1    74.8    68.0     6.8    5.38   28.54    0.00    0.00    0.00    5.38    0.00    0.00    0.00   54.06    15.1    15.0    2.30    0.29    0.29    0.24    0.24    0.20    0.19    8.15    0.14    0.14    0.11    0.10    0.10    0.08    0.09    0.07    0.07   62.20   15.25   15.17    2.42    0.40    0.39    0.33    0.32    0.26    0.26
 1982 170     6    30     1    76.6    71.7     4.9    6.39   32.28    0.00    0.00    0.00    6.39    0.00    0.00    0.00   58.91    15.1    15.0    2.36    0.35    0.34    0.28    0.28    0.23    0.22    4.95    0.14    0.14    0.11    0.10    0.11    0.09    0.09    0.07    0.07   63.86   15.27   15.16    2.47    0.45    0.44    0.37    0.36    0.30    0.29
 1982 171     7    30     1    78.0    74.1     3.9    7.37   34.75    0.00    0.00    0.00    7.37    0.00    0.00    0.00   61.68    15.1    15.0    2.41    0.40    0.39    0.32    0.32    0.26    0.25    3.23    0.14    0.15    0.12    0.11    0.11    0.09    0.09    0.07    0.07   64.91   15.27   15.14    2.53    0.50    0.50    0.41    0.40    0.33    0.32
 1982 172     8    30     1    79.5    76.0     3.5    8.33   36.66    0.00    0.00    0.00    8.33    0.00    0.00    0.00   63.57    15.1    15.0    2.47    0.45    0.44    0.36    0.36    0.29    0.28    2.59    0.15    0.15    0.12    0.11    0.11    0.09    0.09    0.07    0.07   66.16   15.28   15.13    2.58    0.56    0.55    0.45    0.44    0.36    0.35
 1982 173     9    30     1    80.8    77.8     3.0    9.33   38.46    0.00    0.00    0.00    9.33    0.00    0.00    0.00   65.21    15.1    15.0    2.52    0.50    0.49    0.41    0.40    0.32    0.31    1.74    0.15    0.15    0.12    0.11    0.11    0.09    0.09    0.07    0.07   66.95   15.28   15.12    2.64    0.61    0.60    0.49    0.49    0.39    0.38
 1982 174    10    30     1    81.9    79.2     2.7   10.30   39.93    0.00    0.00    0.00   10.30    0.00    0.00    0.00   66.35    15.1    15.0    2.58    0.55    0.54    0.45    0.44    0.35    0.34    1.14    0.15    0.15    0.12    0.11    0.11    0.09    0.09    0.07    0.07   67.49   15.29   15.10    2.69    0.66    0.65    0.53    0.53    0.42    0.41
 1982 175    11    30     1    82.9    80.5     2.4   11.27   41.20    0.00    0.00    0.00   11.27    0.00    0.00    0.00   67.18    15.1    14.9    2.63    0.61    0.60    0.49    0.48    0.38    0.37    0.73    0.15    0.15    0.12    0.11    0.11    0.09    0.09    0.07    0.07   67.91   15.30   15.09    2.75    0.71    0.70    0.57    0.57    0.45    0.44
 1982 176    12    30     1    83.9    81.7     2.2   12.27   42.40    0.00    0.00    0.00   12.27    0.00    0.00    0.00   67.82    15.2    14.9    2.69    0.66    0.65    0.53    0.52    0.41    0.40    0.46    0.15    0.15    0.12    0.11    0.11    0.09    0.09    0.07    0.07   68.27   15.30   15.08    2.80    0.77    0.76    0.62    0.61    0.48    0.47
 1982 177    13    30     1    85.0    82.8     2.1   13.28   43.53    0.00    0.00    0.00   13.28    0.00    0.00    0.00   68.31    15.2    14.9    2.74    0.72    0.70    0.57    0.56    0.44    0.43    0.31    0.15    0.15    0.12    0.11    0.11    0.09    0.09    0.07    0.07   68.62   15.31   15.07    2.86    0.82    0.81    0.66    0.65    0.51    0.50
 1982 178    14    30     1    86.0    83.9     2.1   14.27   44.58    0.00    0.00    0.00   14.27    0.00    0.00    0.00   68.72    15.2    14.9    2.80    0.77    0.76    0.61    0.60    0.47    0.46    0.23    0.15    0.15    0.12    0.11    0.11    0.09    0.09    0.07    0.07   68.96   15.32   15.06    2.92    0.88    0.87    0.70    0.69    0.54    0.53
 1982 179    15    30     1    87.0    84.9     2.1   15.27   45.59    0.00    0.00    0.00   15.27    0.00    0.00    0.00   59.33    20.1    14.9    2.86    0.82    0.81    0.66    0.64    0.50    0.49    0.20    0.15    0.15    0.12    0.11    0.11    0.09    0.09    0.07    0.07   59.53   20.21   15.05    2.97    0.93    0.92    0.74    0.73    0.57    0.56
 1982 180    16    30     1    88.0    85.9     2.1   16.25   46.60    0.00    0.00    0.00   16.25    0.00    0.00    0.00   49.58    25.1    14.9    2.91    0.88    0.86    0.70    0.69    0.53    0.52    0.18    0.15    0.15    0.12    0.11    0.11    0.09    0.09    0.07    0.07   49.76   25.26   15.04    3.03    0.99    0.97    0.78    0.77    0.60    0.59
 1982 181    17    30     1    88.8    86.8     2.1   17.25   47.61    0.00    0.00    0.00   17.25    0.12    0.00    0.00   45.70    27.0    16.0    2.73    0.92    0.90    0.73    0.72    0.56    0.55    0.17    0.15    0.15    0.12    0.11    0.11    0.09    0.09    0.07    0.07   45.87   27.18   16.11    2.85    1.03    1.01    0.82    0.81    0.63    0.62
 1982 182    18    30     1    89.4    87.4     2.1   18.25   48.60    0.00    0.00    0.00   18.25    0.52    0.00    0.00   48.53    25.5    15.1    3.05    0.97    0.94    0.77    0.76    0.59    0.58    0.18    0.15    0.15    0.12    0.11    0.11    0.09    0.09    0.07    0.07   48.71   25.68   15.27    3.16    1.07    1.05    0.86    0.85    0.65    0.65
 1982 183    19    30     1    89.2    87.2     2.1   19.26   49.63    0.00    0.00    0.00   19.26    1.73    0.00    0.00   53.90    23.5    12.9    2.91    1.01    0.98    0.81    0.80    0.62    0.61    0.16    0.15    0.15    0.12    0.11    0.11    0.09    0.09    0.07    0.07   54.06   23.64   13.04    3.03    1.12    1.09    0.90    0.89    0.68    0.67
 1982 184    20    30     1    89.5    87.4     2.0   20.27   50.64    0.00    0.00    0.00   20.27    2.47    0.00    0.00   50.60    25.3    12.4    2.76    1.06    1.02    0.85    0.84    0.64    0.64    0.15    0.15    0.15    0.12    0.11    0.11    0.09    0.09    0.07    0.07   50.75   25.49   12.53    2.88    1.16    1.12    0.93    0.92    0.71    0.70
 1982 185    21    30     1    89.8    87.7     2.0   21.27   51.67    0.00    0.00    0.00   21.27    3.20    0.00    0.00   46.55    26.1    13.5    3.03    1.10    1.06    0.88    0.87    0.67    0.66    0.15    0.14    0.14    0.11    0.11    0.11    0.09    0.09    0.07    0.07   46.70   26.28   13.63    3.14    1.21    1.16    0.97    0.96    0.74    0.73
 1982 186    22    30     1    89.9    87.9     2.0   22.28   52.68    0.00    0.00    0.00   22.28    4.05    0.00    0.00   43.48    26.0    14.6    3.52    1.15    1.10    0.92    0.91    0.70    0.69    0.16    0.14    0.14    0.11    0.11    0.11    0.09    0.09    0.07    0.07   43.64   26.15   14.71    3.63    1.25    1.20    1.01    1.00    0.77    0.76
 1982 187    23    30     1    89.7    87.7     2.0   23.30   53.70    0.00    0.00    0.00   23.30    5.24    0.00    0.00   46.75    23.9    13.1    3.91    1.19    1.14    0.96    0.95    0.73    0.72    0.16    0.14    0.15    0.11    0.11    0.11    0.09    0.09    0.07    0.07   46.91   24.01   13.26    4.02    1.29    1.24    1.04    1.03    0.80    0.79
 1982 188    24    30     1    89.6    87.6     2.0   24.35   54.77    0.00    0.00    0.00   24.35    6.43    0.00    0.00   51.93    21.8    11.4    3.72    1.23    1.18    1.00    0.99    0.76    0.75    0.15    0.14    0.14    0.11    0.10    0.11    0.09    0.09    0.06    0.07   52.08   21.91   11.54    3.83    1.34    1.28    1.08    1.07    0.82    0.82
 1982 189    25    30     1    89.4    87.4     2.0   25.40   55.81    0.00    0.00    0.00   25.40    7.67    0.00    0.00   51.37    21.3    11.2    3.77    1.29    1.23    1.04    1.03    0.79    0.78    0.14    0.14    0.14    0.11    0.10    0.11    0.08    0.09    0.06    0.07   51.52   21.45   11.36    3.88    1.40    1.34    1.13    1.12    0.86    0.85
 1982 190    26    30     1    88.7    86.7     2.0   26.45   56.88    0.00    0.00    0.00   26.45    9.42    0.00    0.00   50.62    20.6    10.9    3.79    1.35    1.29    1.09    1.08    0.82    0.81    0.13    0.14    0.14    0.11    0.10    0.10    0.08    0.09    0.06    0.07   50.76   20.74   11.05    3.91    1.45    1.39    1.17    1.16    0.89    0.88
 1982 191    27    30     1    88.3    86.3     2.0   27.47   57.92    0.00    0.00    0.00   27.47   10.82    0.00    0.00   50.32    20.0    10.6    3.81    1.41    1.35    1.13    1.12    0.86    0.85    0.12    0.13    0.14    0.11    0.10    0.10    0.08    0.09    0.06    0.07   50.44   20.09   10.76    3.93    1.51    1.45    1.22    1.20    0.92    0.91
 1982 192    28    30     1    87.7    85.7     2.0   28.45   58.90    0.00    0.00    0.00   28.45   12.39    0.00    0.00   50.25    19.1    10.2    3.81    1.46    1.40    1.17    1.16    0.89    0.88    0.11    0.12    0.14    0.11    0.10    0.11    0.09    0.09    0.06    0.07   50.36   19.25   10.35    3.92    1.56    1.50    1.26    1.25    0.95    0.94
 1982 193    29    30     1    85.9    84.0     1.9   29.41   59.89    0.00    0.00    0.00   29.41   15.13    0.00    0.00   50.60    17.5     9.3    3.70    1.52    1.45    1.22    1.20    0.92    0.91    0.10    0.11    0.12    0.11    0.11    0.11    0.09    0.09    0.07    0.07   50.70   17.62    9.44    3.82    1.62    1.56    1.30    1.29    0.98    0.97
 1982 194    30    30     1    85.2    83.3     1.9   30.35   60.87    0.00    0.00    0.00   30.35   16.81    0.00    0.00   50.93    16.5     8.8    3.62    1.57    1.51    1.26    1.24    0.95    0.94    0.09    0.10    0.11    0.11    0.11    0.11    0.09    0.09    0.07    0.07   51.01   16.64    8.90    3.73    1.68    1.61    1.34    1.33    1.01    1.00
 1982 195    31    30     1    84.3    82.4     1.9   31.25   61.80    0.00    0.00    0.00   31.25   18.60    0.00    0.00   51.23    15.6     8.2    3.49    1.62    1.56    1.30    1.29    0.98    0.97    0.08    0.09    0.10    0.10    0.11    0.11    0.09    0.09    0.07    0.07   51.31   15.66    8.34    3.60    1.73    1.67    1.39    1.37    1.05    1.03
 1982 196    32    30     1    83.2    81.3     1.9   32.13   62.70    0.00    0.00    0.00   32.13   20.59    0.00    0.00   51.50    14.5     7.6    3.31    1.68    1.61    1.34    1.33    1.01    1.00    0.07    0.08    0.09    0.10    0.11    0.11    0.09    0.09    0.07    0.07   51.57   14.61    7.73    3.41    1.78    1.72    1.43    1.41    1.08    1.06
 1982 197    33    30     1    81.9    80.0     1.8   33.00   63.59    0.00    0.00    0.00   33.00   22.78    0.00    0.00   51.75    13.4     7.0    3.06    1.73    1.67    1.38    1.37    1.04    1.03    0.07    0.08    0.08    0.09    0.11    0.11    0.09    0.09    0.07    0.07   51.82   13.52    7.07    3.15    1.84    1.77    1.47    1.46    1.11    1.09
 1982 198    34    30     1    80.4    78.6     1.8   33.83   64.44    0.00    0.00    0.00   33.83   25.05    0.00    0.00   51.97    12.4     6.3    2.77    1.78    1.72    1.42    1.41    1.07    1.06    0.07    0.07    0.08    0.08    0.11    0.11    0.09    0.09    0.07    0.07   52.04   12.43    6.38    2.86    1.89    1.83    1.51    1.50    1.14    1.12
 1982 199    35    30     1    78.8    77.0     1.8   34.64   65.26    0.00    0.00    0.00   34.64   27.48    0.00    0.00   52.18    11.2     5.5    2.47    1.83    1.77    1.46    1.45    1.10    1.09    0.06    0.07    0.07    0.08    0.11    0.11    0.09    0.09    0.07    0.07   52.24   11.26    5.62    2.55    1.94    1.88    1.55    1.54    1.17    1.15
 1982 200    36    30     1    77.7    75.9     1.8   35.41   66.05    0.00    0.00    0.00   35.41   29.33    0.00    0.00   52.36    10.3     5.0    2.24    1.87    1.82    1.50    1.49    1.13    1.12    0.06    0.06    0.07    0.07    0.11    0.11    0.09    0.09    0.07    0.07   52.42   10.39    5.03    2.31    1.98    1.93    1.59    1.57    1.20    1.18
 1982 201    37    30     1    76.8    75.0     1.8   36.17   66.81    0.00    0.00    0.00   36.17   31.03    0.00    0.00   52.53     9.6     4.4    2.00    1.92    1.86    1.54    1.52    1.16    1.14    0.06    0.06    0.07    0.07    0.11    0.11    0.09    0.09    0.07    0.07   52.59    9.62    4.48    2.06    2.03    1.97    1.63    1.61    1.22    1.21
 1982 202    38    30     1    75.1    73.4     1.8   36.91   67.56    0.00    0.00    0.00   36.91   33.37    0.00    0.00   33.09    18.4     3.6    1.62    1.96    1.91    1.58    1.56    1.18    1.17    0.06    0.05    0.06    0.06    0.11    0.11    0.09    0.09    0.07    0.07   33.15   18.44    3.71    1.68    2.07    2.02    1.67    1.65    1.25    1.24
 1982 203    39    30     1    75.7    73.9     1.8   37.70   68.30    0.00    0.00    0.00   37.70   33.61    0.00    0.00   25.44    22.1     3.7    1.64    2.00    1.96    1.61    1.60    1.21    1.20    0.11    0.07    0.06    0.06    0.11    0.11    0.09    0.09    0.07    0.07   25.55   22.14    3.72    1.70    2.11    2.07    1.70    1.69    1.28    1.27
 1982 204    40    30     1    76.5    74.6     1.9   38.49   69.02    0.00    0.00    0.00   38.49   33.61    0.00    0.00   24.32    22.8     3.6    1.65    2.04    1.99    1.65    1.63    1.24    1.22    0.14    0.11    0.06    0.06    0.11    0.11    0.09    0.09    0.07    0.07   24.46   22.91    3.62    1.71    2.15    2.11    1.74    1.72    1.31    1.29
 1982 205    41    30     1    74.9    73.0     1.9   39.29   69.79    0.00    0.00    0.00   39.29   35.94    0.00    0.00   17.39    21.5     9.7    1.61    2.08    2.02    1.68    1.66    1.26    1.25    0.15    0.13    0.06    0.06    0.11    0.11    0.09    0.09    0.07    0.07   17.53   21.67    9.71    1.67    2.19    2.14    1.77    1.75    1.33    1.32
 1982 206    42    30     1    73.0    71.0     2.0   40.13   70.58    0.00    0.00    0.00   40.13   38.72    0.00    0.00   15.10    19.2    11.5    1.88    2.11    2.06    1.71    1.69    1.29    1.27    0.17    0.14    0.10    0.06    0.11    0.11    0.09    0.09    0.07    0.07   15.27   19.39   11.56    1.94    2.22    2.17    1.80    1.78    1.36    1.34
 1982 207    43    30     1    71.8    69.8     2.0   40.98   71.40    0.04    0.00    0.00   40.98   40.73    0.00    0.00   13.58    17.7    12.0    2.25    2.15    2.09    1.74    1.73    1.31    1.30    0.17    0.15    0.12    0.06    0.11    0.11    0.09    0.09    0.07    0.07   13.76   17.84   12.12    2.31    2.26    2.21    1.83    1.82    1.38    1.37
 1982 208    44    30     1    69.5    67.5     2.0   41.83   72.23    0.06    0.00    0.00   41.83   43.79    0.00    0.00   12.08    15.9    11.6    2.50    2.19    2.13    1.78    1.76    1.34    1.33    0.17    0.15    0.14    0.06    0.11    0.11    0.09    0.09    0.07    0.07   12.24   16.10   11.72    2.56    2.30    2.24    1.87    1.85    1.41    1.39
 1982 209    45    30     1    67.6    65.6     2.0   42.73   73.12    0.08    0.00    0.00   42.73   46.64    0.00    0.00    8.75    13.8    12.5    3.33    2.23    2.16    1.81    1.80    1.37    1.35    0.16    0.15    0.14    0.07    0.11    0.11    0.09    0.09    0.07    0.07    8.91   13.91   12.65    3.40    2.34    2.28    1.90    1.89    1.43    1.42
 1982 210    46    30     1    65.7    63.7     2.0   43.65   74.01    0.10    0.00    0.00   43.65   49.40    0.00    0.00    6.58    11.4    12.2    4.38    2.27    2.20    1.85    1.83    1.39    1.38    0.18    0.15    0.15    0.07    0.11    0.11    0.09    0.09    0.07    0.07    6.76   11.53   12.31    4.45    2.38    2.31    1.94    1.92    1.46    1.45
 1982 211    47    60     2    79.0    62.1    16.9   44.59   74.91    0.14    0.00    0.00   44.59   51.85    0.00    0.00    5.95     9.7    10.7    4.94    2.31    2.24    1.88    1.87    1.42    1.41   24.90    0.16    0.16    0.09    0.11    0.11    0.09    0.09    0.07    0.07   30.85    9.90   10.90    5.03    2.42    2.35    1.97    1.96    1.49    1.48
 1982 212    48    60     2    86.2    67.5    18.7   45.54   81.10    0.17    0.00    0.00   45.54   52.95    0.00    0.00   13.03     8.5    10.7    6.08    2.35    2.28    1.92    1.90    1.45    1.44   27.91    0.16    0.16    0.10    0.11    0.11    0.09    0.09    0.07    0.07   40.94    8.67   10.87    6.18    2.46    2.39    2.01    1.99    1.51    1.50
 1982 213    49    60     2    88.7    72.0    16.7   46.49   87.08    0.23    0.00    0.00   46.49   55.11    0.00    0.00   18.63     8.3     9.9    6.44    2.81    2.32    1.96    1.94    1.47    1.46   19.59    2.60    0.17    0.11    0.11    0.11    0.09    0.09    0.07    0.07   38.22   10.87   10.03    6.56    2.92    2.43    2.04    2.03    1.54    1.53
 1982 214    50    60     2    90.1    76.6    13.6   47.41   92.62    0.32    0.00    0.00   47.41   56.34    0.00    0.00   19.59    10.0     9.8    6.69    3.42    2.36    1.99    1.97    1.50    1.49   13.97    2.44    0.89    0.12    0.11    0.11    0.09    0.09    0.07    0.07   33.56   12.45   10.64    6.81    3.54    2.47    2.08    2.06    1.57    1.56
 1982 215    51    60     2    91.2    80.3    10.9   48.30   97.00    0.41    0.00    0.00   48.30   57.05    0.00    0.00   17.11    11.6    10.9    7.11    4.05    2.59    2.03    2.01    1.53    1.52   10.17    1.89    1.05    0.19    0.11    0.11    0.09    0.09    0.07    0.07   27.27   13.50   11.96    7.30    4.16    2.70    2.11    2.10    1.59    1.58
 1982 216    52    60     2    89.1    80.9     8.2   49.19  100.47    0.49    0.00    0.00   49.19   60.41    0.00    0.00   16.58    11.4    10.5    7.02    4.44    2.87    2.08    2.04    1.55    1.54    6.78    1.30    0.96    0.24    0.13    0.11    0.09    0.09    0.07    0.07   23.36   12.70   11.44    7.26    4.57    2.98    2.17    2.13    1.62    1.61
 1982 217    53    60     2    88.2    82.1     6.1   50.10  103.52    0.54    0.00    0.00   50.10   62.39    0.00    0.00   17.78    11.2     9.7    6.80    4.66    3.04    2.37    2.13    1.58    1.57    4.32    0.84    0.74    0.24    0.15    0.12    0.09    0.09    0.07    0.07   22.09   12.07   10.46    7.04    4.81    3.16    2.46    2.21    1.65    1.64
 1982 218    54    60     2    89.2    84.8     4.5   51.02  106.20    0.55    0.00    0.00   51.02   62.39    0.00    0.00   14.84    12.8    11.4    7.14    4.80    3.14    2.44    2.16    1.60    1.59    2.45    0.57    0.52    0.21    0.15    0.12    0.09    0.09    0.07    0.07   17.29   13.39   11.91    7.35    4.95    3.26    2.53    2.25    1.67    1.66
 1982 219    55    60     2    90.2    86.5     3.7   51.94  107.94    0.59    0.00    0.00   51.94   62.39    0.00    0.00   14.98    12.7    11.3    7.39    5.05    3.27    2.53    2.33    1.64    1.62    1.76    0.40    0.38    0.18    0.15    0.12    0.09    0.09    0.07    0.07   16.74   13.05   11.68    7.57    5.20    3.40    2.62    2.42    1.70    1.69
 1982 220    56    60     2    91.1    88.1     3.0   52.88  109.58    0.60    0.00    0.00   52.88   62.39    0.00    0.00   11.48    13.3    13.1    7.90    5.23    3.35    2.57    2.39    1.66    1.65    1.02    0.29    0.29    0.16    0.15    0.13    0.09    0.09    0.07    0.07   12.49   13.62   13.39    8.06    5.37    3.47    2.67    2.48    1.73    1.72
 1982 221    57    60     2    92.0    89.3     2.8   53.80  110.78    0.64    0.00    0.00   53.80   62.39    0.00    0.00    6.74    11.4    13.7    9.57    6.25    3.67    2.70    2.45    1.72    1.68    0.77    0.24    0.24    0.15    0.14    0.13    0.09    0.09    0.07    0.07    7.51   11.64   13.90    9.72    6.40    3.80    2.80    2.54    1.79    1.74
 1982 222    58    60     2    92.9    90.2     2.7   54.71  111.79    0.67    0.00    0.00   54.71   62.39    0.00    0.00    5.79    10.2    12.8    9.92    7.04    4.07    2.89    2.54    1.81    1.70    0.61    0.23    0.24    0.15    0.14    0.13    0.09    0.09    0.07    0.07    6.40   10.38   13.05   10.07    7.18    4.21    2.99    2.63    1.88    1.77
 1982 223    59    60     2    93.8    91.2     2.6   55.61  112.77    0.72    0.00    0.00   55.61   62.39    0.00    0.00    6.12     9.3    11.3    9.52    7.46    4.50    3.17    2.65    1.89    1.84    0.50    0.21    0.23    0.14    0.14    0.14    0.10    0.10    0.07    0.07    6.61    9.54   11.50    9.66    7.60    4.63    3.27    2.74    1.96    1.91
 1982 224    60    60     2    94.6    92.2     2.4   56.52  113.84    0.73    0.00    0.00   56.52   62.39    0.00    0.00    4.86     8.9    11.8    9.83    7.73    4.67    3.28    2.71    1.93    1.88    0.35    0.19    0.20    0.13    0.14    0.14    0.10    0.10    0.07    0.07    5.20    9.09   12.00    9.96    7.87    4.81    3.37    2.81    2.00    1.95
 1982 225    61    60     2    95.5    93.1     2.4   57.43  114.77    0.78    0.00    0.00   57.43   62.39    0.00    0.00    2.95     6.8    10.0   10.57    9.01    5.30    3.55    2.83    1.98    1.91    0.31    0.18    0.18    0.13    0.14    0.13    0.10    0.10    0.07    0.07    3.26    6.98   10.22   10.70    9.14    5.43    3.64    2.92    2.05    1.99
 1982 226    62    60     2    95.2    92.8     2.4   58.36  115.61    0.91    0.00    0.00   58.36   62.39    1.04    0.00    3.18     6.1     8.4    9.59    9.14    5.88    4.04    3.08    2.06    1.95    0.28    0.19    0.18    0.12    0.13    0.14    0.10    0.10    0.08    0.08    3.46    6.26    8.61    9.71    9.28    6.02    4.14    3.18    2.14    2.03
 1982 227    63    60     2    95.7    93.3     2.4   59.26  116.53    0.95    0.00    0.00   59.26   62.39    1.37    0.00    3.46     5.9     8.1    9.31    9.16    6.06    4.22    3.19    2.11    1.98    0.23    0.18    0.17    0.12    0.13    0.14    0.09    0.10    0.08    0.08    3.69    6.13    8.22    9.43    9.29    6.19    4.31    3.28    2.19    2.06
 1982 228    64    60     2    96.6    94.2     2.4   60.16  117.44    0.95    0.00    0.00   60.16   62.39    1.37    0.00    2.29     5.3     8.5    9.61    9.49    6.27    4.33    3.26    2.14    2.02    0.20    0.17    0.16    0.12    0.13    0.13    0.09    0.09    0.08    0.08    2.48    5.50    8.64    9.73    9.62    6.41    4.43    3.35    2.23    2.10
 1982 229    65    60     2    96.9    94.5     2.4   61.05  118.29    0.98    0.00    0.00   61.05   62.39    1.92    0.00    2.49     4.9     7.4    9.05    9.61    6.64    4.68    3.47    2.22    2.06    0.21    0.18    0.17    0.12    0.13    0.13    0.09    0.09    0.08    0.08    2.70    5.06    7.55    9.16    9.74    6.78    4.77    3.57    2.31    2.15
 1982 230    66    60     2    97.8    95.4     2.4   61.94  119.21    0.98    0.00    0.00   61.94   62.39    1.92    0.00    1.76     4.3     7.4    9.24    9.94    6.87    4.80    3.54    2.26    2.09    0.19    0.17    0.17    0.12    0.13    0.13    0.09    0.09    0.08    0.09    1.95    4.51    7.58    9.36   10.07    7.01    4.90    3.63    2.34    2.17
 1982 231    67    60     2    98.1    95.7     2.4   62.83  120.05    1.00    0.00    0.00   62.83   62.39    2.47    0.00    2.00     4.0     6.5    8.64    9.93    7.20    5.18    3.77    2.35    2.14    0.20    0.18    0.18    0.12    0.13    0.13    0.09    0.09    0.09    0.09    2.21    4.20    6.67    8.76   10.06    7.33    5.27    3.87    2.44    2.22
 1982 232    68    60     2    98.9    96.5     2.4   63.74  120.97    1.01    0.00    0.00   63.74   62.39    2.55    0.00    2.25     4.1     6.4    8.58    9.96    7.28    5.26    3.84    2.39    2.17    0.19    0.17    0.17    0.12    0.13    0.13    0.09    0.09    0.09    0.09    2.43    4.22    6.54    8.70   10.09    7.41    5.35    3.93    2.47    2.25
 1982 233    69    60     2    99.8    97.4     2.4   64.64  121.89    1.01    0.00    0.00   64.64   62.39    2.55    0.00    2.74     4.2     6.6    8.57    9.94    7.28    5.27    3.86    2.41    2.19    0.17    0.16    0.16    0.12    0.13    0.13    0.09    0.09    0.09    0.09    2.91    4.34    6.76    8.70   10.07    7.41    5.37    3.95    2.50    2.28
 1982 234    70    60     2   100.7    98.4     2.3   65.54  122.85    1.01    0.00    0.00   65.54   62.39    2.55    0.00    3.29     4.3     6.8    8.56    9.92    7.29    5.28    3.88    2.44    2.22    0.16    0.16    0.16    0.12    0.12    0.12    0.09    0.09    0.08    0.09    3.45    4.47    6.96    8.68   10.04    7.41    5.38    3.98    2.52    2.30
 1982 235    71    60     2   101.6    99.3     2.2   66.45  123.84    1.01    0.00    0.00   66.45   62.39    2.55    0.00    3.94     4.5     7.0    8.54    9.89    7.28    5.29    3.91    2.47    2.25    0.16    0.14    0.15    0.12    0.12    0.12    0.09    0.09    0.07    0.08    4.10    4.59    7.13    8.66   10.01    7.40    5.38    4.00    2.54    2.33
 1982 236    72    60     2   102.5   100.3     2.1   67.34  124.83    1.01    0.00    0.00   67.34   62.39    2.55    0.00    4.58     4.6     7.1    8.52    9.86    7.28    5.30    3.93    2.50    2.28    0.15    0.12    0.13    0.12    0.11    0.11    0.09    0.09    0.07    0.07    4.73    4.72    7.24    8.64    9.98    7.40    5.40    4.02    2.57    2.35
 1982 237    73    60     2   102.7   100.7     2.1   68.22  125.79    1.01    0.00    0.00   68.22   63.00    2.55    0.00    1.38     3.8     7.2    9.66   10.16    7.32    5.35    3.97    2.53    2.31    0.14    0.11    0.11    0.12    0.11    0.11    0.09    0.09    0.07    0.07    1.52    3.92    7.36    9.78   10.27    7.43    5.43    4.06    2.60    2.38
 1982 238    74    60     2   101.9    99.8     2.1   69.17  126.68    1.01    0.00    0.00   69.17   64.49    2.85    0.00    1.46     3.2     5.6    8.65   10.31    7.76    5.68    4.18    2.62    2.37    0.17    0.15    0.15    0.12    0.11    0.11    0.09    0.09    0.07    0.07    1.63    3.32    5.79    8.77   10.42    7.87    5.77    4.27    2.69    2.43
 1982 239    75    60     2   101.6    99.5     2.1   70.13  127.64    1.01    0.00    0.00   70.13   65.71    2.85    0.00    1.67     3.0     5.3    8.38   10.30    7.79    5.73    4.22    2.65    2.40    0.16    0.15    0.15    0.12    0.11    0.11    0.09    0.09    0.07    0.07    1.83    3.14    5.42    8.50   10.41    7.90    5.82    4.31    2.72    2.46
 1982 240    76    60     2   101.2    99.1     2.1   71.07  128.59    1.01    0.00    0.00   71.07   67.04    2.85    0.00    1.91     2.9     5.2    8.05   10.22    7.75    5.74    4.25    2.68    2.42    0.16    0.15    0.15    0.12    0.11    0.11    0.09    0.09    0.07    0.07    2.07    3.07    5.36    8.17   10.33    7.86    5.83    4.34    2.74    2.49
 1982 241    77    60     2   100.6    98.5     2.1   72.02  129.54    1.01    0.00    0.00   72.02   68.57    2.85    0.00    1.87     2.7     4.9    7.72   10.19    7.75    5.78    4.29    2.70    2.45    0.16    0.15    0.15    0.12    0.11    0.11    0.09    0.09    0.07    0.07    2.03    2.89    5.01    7.84   10.30    7.86    5.87    4.38    2.77    2.52
 1982 242    78    60     2    99.7    97.6     2.1   72.96  130.52    1.01    0.00    0.00   72.96   70.46    2.85    0.00    1.84     2.5     4.4    7.30   10.14    7.73    5.82    4.33    2.74    2.48    0.14    0.14    0.15    0.12    0.11    0.11    0.09    0.09    0.07    0.07    1.99    2.66    4.56    7.42   10.25    7.84    5.91    4.42    2.80    2.55
 1982 243    79    60     2    99.0    97.0     2.0   73.91  131.51    1.01    0.00    0.00   73.91   72.07    2.85    0.00    0.73     2.2     4.4    7.32   10.09    7.72    5.86    4.37    2.77    2.51    0.13    0.13    0.13    0.12    0.11    0.11    0.09    0.09    0.07    0.07    0.86    2.32    4.51    7.44   10.20    7.82    5.95    4.46    2.83    2.58
 1982 244    80    60     2    98.6    96.5     2.1   74.92  132.48    1.01    0.00    0.00   74.92   73.49    2.85    0.00    0.87     1.9     3.8    6.96   10.18    7.85    5.91    4.40    2.79    2.54    0.16    0.15    0.15    0.12    0.11    0.11    0.09    0.09    0.07    0.07    1.03    2.05    3.91    7.08   10.29    7.95    6.00    4.48    2.86    2.61
 1982 245    81    60     2    99.0    96.9     2.1   75.93  133.50    1.01    0.00    0.00   75.93   74.11    2.85    0.00    1.07     1.9     3.9    6.91   10.12    7.82    5.93    4.42    2.82    2.57    0.16    0.15    0.15    0.12    0.11    0.11    0.09    0.09    0.07    0.07    1.23    2.08    4.01    7.03   10.23    7.93    6.01    4.51    2.88    2.63
 1982 246    82    60     2    98.3    96.3     2.1   76.95  134.52    1.01    0.00    0.00   76.95   75.78    2.85    0.00    1.25     1.9     3.8    6.54    9.99    7.74    5.94    4.45    2.84    2.59    0.15    0.15    0.15    0.12    0.11    0.11    0.09    0.09    0.07    0.07    1.40    2.01    3.95    6.65   10.09    7.84    6.02    4.53    2.91    2.66
 1982 247    83    60     2    98.2    96.1     2.1   77.96  135.53    1.01    0.00    0.00   77.96   76.97    2.85    0.00    1.26     1.8     3.6    6.29    9.96    7.73    5.98    4.49    2.87    2.62    0.15    0.15    0.15    0.12    0.11    0.11    0.09    0.09    0.07    0.07    1.41    1.94    3.74    6.41   10.06    7.83    6.06    4.58    2.94    2.69
 1982 248    84    60     2    97.7    95.7     2.0   78.93  136.52    1.01    0.00    0.00   78.93   78.35    2.85    0.00    0.83     1.8     3.5    6.02    9.90    7.70    6.02    4.53    2.90    2.66    0.14    0.14    0.15    0.12    0.11    0.11    0.09    0.09    0.07    0.07    0.97    1.92    3.69    6.14   10.01    7.81    6.10    4.62    2.97    2.72
 1982 249    85    60     2    97.1    95.1     2.1   79.91  137.46    1.01    0.00    0.00   79.91   79.94    2.85    0.00    0.88     1.6     3.4    5.81    9.76    7.61    6.02    4.55    2.93    2.68    0.17    0.15    0.15    0.12    0.11    0.11    0.09    0.09    0.07    0.07    1.06    1.78    3.52    5.93    9.86    7.72    6.11    4.64    2.99    2.75
 1982 250    86    60     2    96.8    94.7     2.1   80.90  138.45    1.01    0.00    0.00   80.90   81.29    2.85    0.00    1.04     1.6     3.4    5.55    9.62    7.53    6.03    4.57    2.95    2.71    0.17    0.15    0.15    0.12    0.11    0.11    0.09    0.09    0.07    0.07    1.20    1.77    3.54    5.67    9.73    7.64    6.12    4.66    3.01    2.77
 1982 251    87    60     2    95.6    93.5     2.1   81.89  139.45    1.01    0.00    0.00   81.89   83.43    2.85    0.00    1.17     1.5     3.2    5.13    9.41    7.39    6.03    4.59    2.97    2.73    0.16    0.15    0.15    0.12    0.11    0.11    0.09    0.09    0.07    0.07    1.33    1.66    3.40    5.24    9.52    7.50    6.11    4.68    3.04    2.80
 1982 252    88    60     2    95.2    93.2     2.0   82.87  140.46    1.01    0.00    0.00   82.87   84.82    2.85    0.00    1.15     1.4     3.0    4.86    9.35    7.36    6.07    4.63    3.00    2.76    0.15    0.14    0.14    0.11    0.11    0.11    0.09    0.09    0.07    0.07    1.30    1.57    3.12    4.98    9.46    7.46    6.16    4.72    3.07    2.83
 1982 253    89    60     2    94.5    92.5     2.0   83.84  141.48    1.01    0.00    0.00   83.84   86.45    2.85    0.00    1.14     1.3     2.7    4.53    9.26    7.30    6.11    4.67    3.03    2.79    0.14    0.13    0.13    0.11    0.11    0.11    0.09    0.09    0.07    0.07    1.28    1.45    2.81    4.64    9.37    7.41    6.20    4.76    3.10    2.86
 1982 254    90    60     2    94.5    92.6     1.9   84.79  142.48    1.01    0.00    0.00   84.79   87.43    2.85    0.00    1.19     1.3     2.6    4.34    9.22    7.28    6.15    4.72    3.06    2.82    0.13    0.12    0.12    0.10    0.11    0.11    0.09    0.09    0.06    0.07    1.31    1.40    2.67    4.44    9.33    7.39    6.24    4.80    3.13    2.89
 1982 255    91    60     2    94.0    92.1     1.9   85.73  143.46    1.01    0.00    0.00   85.73   88.83    2.85    0.00    1.24     1.2     2.3    4.05    9.13    7.22    6.20    4.76    3.10    2.86    0.11    0.11    0.11    0.09    0.11    0.11    0.09    0.09    0.06    0.07    1.35    1.32    2.45    4.14    9.24    7.33    6.28    4.84    3.16    2.92
 1982 256    92    60     2    93.9    92.1     1.9   86.64  144.41    1.01    0.00    0.00   86.64   89.83    2.85    0.00    0.88     1.4     2.2    3.86    9.07    7.18    6.24    4.80    3.13    2.89    0.10    0.10    0.10    0.08    0.11    0.11    0.09    0.09    0.06    0.07    0.98    1.49    2.31    3.94    9.17    7.29    6.32    4.89    3.19    2.95
 1982 257    93    60     2    93.7    91.8     1.9   87.57  145.29    1.01    0.00    0.00   87.57   90.99    2.85    0.00    0.45     1.1     2.1    3.90    8.99    7.13    6.28    4.84    3.16    2.92    0.14    0.13    0.10    0.07    0.11    0.11    0.09    0.09    0.07    0.07    0.59    1.22    2.23    3.98    9.09    7.24    6.37    4.93    3.22    2.98
 1982 258    94    60     2    93.3    91.3     2.0   88.50  146.13    1.01    0.00    0.00   88.50   92.32    2.85    0.00    0.47     0.9     1.8    3.87    8.84    7.04    6.29    4.86    3.18    2.94    0.17    0.15    0.14    0.08    0.11    0.11    0.09    0.09    0.07    0.07    0.64    1.06    1.95    3.95    8.95    7.14    6.38    4.95    3.25    3.01
 1982 259    95    60     2    92.5    90.5     2.0   89.44  147.03    1.01    0.00    0.00   89.44   94.07    2.85    0.00    0.54     0.8     1.7    3.60    8.63    6.90    6.29    4.88    3.20    2.97    0.17    0.16    0.15    0.09    0.11    0.11    0.09    0.09    0.07    0.07    0.70    0.98    1.89    3.69    8.74    7.01    6.38    4.97    3.27    3.03
 1982 260    96    60     2    92.3    90.3     2.1   90.36  147.92    1.01    0.00    0.00   90.36   95.15    2.85    0.00    0.58     0.8     1.8    3.45    8.50    6.81    6.30    4.90    3.22    2.99    0.16    0.16    0.15    0.10    0.11    0.11    0.09    0.09    0.07    0.07    0.75    0.98    1.97    3.55    8.61    6.92    6.39    4.99    3.29    3.06
 1982 261    97    60     2    91.0    88.9     2.1   91.28  148.83    1.01    0.00    0.00   91.28   97.44    2.85    0.00    0.60     0.7     1.7    3.08    8.21    6.61    6.29    4.91    3.24    3.01    0.16    0.16    0.16    0.10    0.11    0.11    0.09    0.09    0.07    0.07    0.77    0.88    1.87    3.18    8.32    6.72    6.37    5.00    3.31    3.08
 1982 262    98    60     2    90.1    88.1     2.1   92.22  149.79    1.01    0.00    0.00   92.22   99.18    2.85    0.00    0.63     0.7     1.7    2.87    7.95    6.45    6.27    4.92    3.26    3.03    0.16    0.16    0.16    0.10    0.11    0.11    0.09    0.09    0.07    0.07    0.79    0.86    1.90    2.97    8.06    6.56    6.36    5.01    3.32    3.10
 1982 263    99    60     2    90.2    88.2     2.0   93.18  150.77    1.01    0.00    0.00   93.18  100.07    2.85    0.00    0.65     0.7     1.6    2.74    7.91    6.42    6.31    4.96    3.29    3.06    0.16    0.16    0.15    0.09    0.11    0.11    0.09    0.09    0.07    0.07    0.81    0.86    1.79    2.83    8.02    6.53    6.40    5.05    3.35    3.13
 1982 264   100    60     2    89.9    87.9     2.0   94.14  151.75    1.01    0.00    0.00   94.14  101.34    2.85    0.00    0.63     0.7     1.4    2.53    7.81    6.36    6.35    5.00    3.32    3.09    0.15    0.15    0.14    0.09    0.11    0.11    0.09    0.09    0.07    0.07    0.78    0.82    1.58    2.62    7.92    6.46    6.44    5.09    3.39    3.16
 1982 265   101    60     2    89.2    87.3     2.0   95.10  152.77    1.01    0.00    0.00   95.10  102.97    2.85    0.00    0.60     0.6     1.2    2.28    7.66    6.24    6.39    5.04    3.35    3.12    0.14    0.14    0.13    0.08    0.11    0.11    0.09    0.09    0.07    0.07    0.74    0.73    1.32    2.36    7.76    6.35    6.48    5.13    3.42    3.19
 1982 266   102    60     2    89.0    87.1     1.9   96.05  153.76    1.01    0.00    0.00   96.05  104.12    2.85    0.00    0.62     0.6     1.1    2.12    7.55    6.16    6.44    5.09    3.38    3.16    0.13    0.13    0.13    0.07    0.11    0.11    0.09    0.09    0.06    0.07    0.75    0.68    1.18    2.20    7.65    6.27    6.52    5.17    3.45    3.22
[...]
 2015 252    88    60     2    74.6    72.4     2.1   82.45  119.29    2.54    0.00    0.00   82.45   93.24   12.58    0.00    0.30     0.3     0.3    0.31    0.70    1.02    3.90    5.76    5.03    4.63    0.19    0.15    0.16    0.12    0.11    0.11    0.09    0.09    0.06    0.08    0.50    0.46    0.47    0.43    0.81    1.13    3.99    5.84    5.09    4.71
 2015 253    89    60     2    75.2    73.1     2.1   83.47  120.35    2.54    0.00    0.00   83.47   93.68   12.58    0.00    0.30     0.3     0.4    0.32    0.72    1.03    3.95    5.80    5.05    4.66    0.17    0.15    0.15    0.12    0.11    0.11    0.09    0.09    0.06    0.07    0.47    0.48    0.50    0.44    0.82    1.13    4.03    5.88    5.12    4.74
 2015 254    90    60     2    75.6    73.5     2.1   84.47  121.36    2.54    0.00    0.00   84.47   94.20   12.58    0.00    0.25     0.3     0.3    0.32    0.73    1.03    4.00    5.84    5.08    4.69    0.19    0.15    0.15    0.12    0.11    0.11    0.09    0.09    0.06    0.07    0.44    0.47    0.50    0.44    0.83    1.14    4.08    5.92    5.14    4.76
 2015 255    91    60     2    76.2    74.1     2.1   85.49  122.37    2.54    0.00    0.00   85.49   94.67   12.58    0.00    0.23     0.3     0.3    0.33    0.73    1.06    4.03    5.90    5.10    4.72    0.20    0.15    0.16    0.12    0.11    0.11    0.09    0.09    0.06    0.07    0.43    0.46    0.50    0.45    0.84    1.16    4.12    5.99    5.17    4.79
 2015 256    92    60     2    76.7    74.5     2.2   86.48  123.29    2.54    0.00    0.00   86.48   95.13   12.58    0.00    0.24     0.3     0.3    0.31    0.71    1.05    4.01    5.95    5.19    4.75    0.21    0.17    0.18    0.12    0.12    0.12    0.09    0.09    0.07    0.07    0.45    0.46    0.49    0.43    0.83    1.16    4.10    6.03    5.26    4.81
 2015 257    93    60     2    77.3    75.0     2.2   87.46  124.20    2.55    0.00    0.00   87.46   95.52   12.58    0.00    0.26     0.3     0.3    0.31    0.69    1.04    3.95    5.96    5.23    4.82    0.22    0.17    0.19    0.12    0.13    0.12    0.09    0.09    0.07    0.07    0.47    0.48    0.51    0.43    0.82    1.16    4.04    6.05    5.30    4.89
 2015 258    94    60     2    76.5    74.2     2.3   88.44  125.09    2.55    0.00    0.00   88.44   95.94   13.91    0.00    0.31     0.3     0.3    0.30    0.64    0.97    3.51    5.54    5.09    4.87    0.22    0.17    0.20    0.13    0.13    0.13    0.09    0.09    0.08    0.07    0.53    0.48    0.50    0.42    0.77    1.10    3.61    5.64    5.17    4.94
 2015 259    95    60     2    77.0    74.7     2.3   89.43  126.12    2.55    0.00    0.00   89.43   96.34   14.06    0.00    0.36     0.3     0.3    0.31    0.65    0.96    3.49    5.53    5.10    4.89    0.19    0.16    0.18    0.12    0.13    0.13    0.09    0.09    0.08    0.08    0.55    0.49    0.52    0.44    0.78    1.09    3.58    5.62    5.18    4.97
 2015 260    96    60     2    77.4    75.2     2.2   90.42  127.17    2.55    0.00    0.00   90.42   96.85   14.06    0.00    0.30     0.3     0.4    0.32    0.67    0.97    3.54    5.57    5.13    4.92    0.17    0.16    0.17    0.12    0.12    0.12    0.09    0.09    0.08    0.08    0.47    0.49    0.52    0.44    0.79    1.09    3.63    5.66    5.21    5.00
 2015 261    97    60     2    77.9    75.7     2.2   91.41  128.18    2.55    0.00    0.00   91.41   97.36   14.07    0.00    0.31     0.3     0.3    0.32    0.68    0.99    3.57    5.60    5.15    4.94    0.18    0.15    0.16    0.12    0.11    0.11    0.09    0.09    0.08    0.08    0.49    0.48    0.49    0.44    0.80    1.10    3.67    5.69    5.23    5.02
 2015 262    98    60     2    78.4    76.2     2.2   92.41  129.21    2.55    0.00    0.00   92.41   97.83   14.07    0.00    0.26     0.3     0.4    0.33    0.70    1.00    3.63    5.64    5.17    4.97    0.16    0.15    0.15    0.12    0.11    0.11    0.09    0.09    0.08    0.08    0.43    0.48    0.52    0.45    0.81    1.11    3.72    5.73    5.25    5.05
 2015 263    99    60     2    78.9    76.7     2.2   93.42  130.23    2.55    0.00    0.00   93.42   98.33   14.07    0.00    0.25     0.3     0.3    0.32    0.71    1.02    3.68    5.68    5.21    4.99    0.19    0.16    0.16    0.12    0.11    0.11    0.09    0.09    0.07    0.08    0.44    0.47    0.50    0.44    0.82    1.13    3.77    5.77    5.28    5.07
 2015 264   100    60     2    79.0    76.8     2.2   94.43  131.25    2.55    0.00    0.00   94.43   98.79   14.55    0.00    0.30     0.3     0.3    0.31    0.68    1.01    3.53    5.56    5.19    5.04    0.20    0.16    0.17    0.12    0.12    0.11    0.09    0.09    0.07    0.07    0.50    0.47    0.47    0.43    0.80    1.11    3.62    5.65    5.26    5.11
 2015 265   101    60     2    79.6    77.5     2.1   95.44  132.31    2.55    0.00    0.00   95.44   99.22   14.55    0.00    0.36     0.3     0.3    0.32    0.70    1.01    3.58    5.60    5.22    5.07    0.18    0.15    0.16    0.12    0.11    0.11    0.09    0.09    0.07    0.07    0.53    0.48    0.49    0.43    0.81    1.12    3.67    5.69    5.29    5.14
 2015 266   102    60     2    80.1    78.0     2.1   96.46  133.36    2.55    0.00    0.00   96.46   99.74   14.55    0.00    0.36     0.3     0.3    0.31    0.71    1.01    3.64    5.64    5.25    5.09    0.16    0.15    0.15    0.12    0.11    0.11    0.09    0.09    0.07    0.07    0.52    0.48    0.49    0.43    0.82    1.12    3.72    5.73    5.31    5.16
 2015 267   103    60     2    80.6    78.5     2.0   97.49  134.42    2.55    0.00    0.00   97.49  100.25   14.55    0.00    0.25     0.3     0.4    0.32    0.72    1.00    3.68    5.68    5.28    5.13    0.15    0.15    0.15    0.12    0.11    0.11    0.09    0.09    0.07    0.07    0.40    0.49    0.52    0.44    0.83    1.11    3.77    5.77    5.34    5.19
 2015 268   104    60     2    81.1    79.0     2.1   98.52  135.45    2.55    0.00    0.00   98.52  100.76   14.55    0.00    0.27     0.3     0.4    0.33    0.73    1.02    3.74    5.73    5.30    5.15    0.18    0.15    0.15    0.12    0.11    0.11    0.09    0.09    0.06    0.07    0.44    0.47    0.50    0.45    0.84    1.12    3.82    5.81    5.37    5.21
 2015 269   105    60     2    81.6    79.5     2.1   99.54  136.45    2.55    0.00    0.00   99.54  101.26   14.55    0.00    0.30     0.3     0.3    0.31    0.74    1.04    3.79    5.77    5.33    5.18    0.19    0.15    0.16    0.12    0.11    0.11    0.09    0.09    0.06    0.07    0.49    0.46    0.47    0.43    0.85    1.15    3.87    5.85    5.39    5.24
 2015 270   106    60     2    82.1    80.1     2.1  100.54  137.45    2.55    0.00    0.00  100.54  101.72   14.55    0.00    0.35     0.3     0.3    0.32    0.75    1.04    3.83    5.81    5.35    5.20    0.18    0.15    0.15    0.12    0.11    0.11    0.09    0.09    0.06    0.07    0.52    0.48    0.48    0.43    0.86    1.14    3.92    5.89    5.42    5.27
 2015 271   107    60     2    82.6    80.5     2.1  101.53  138.44    2.55    0.00    0.00  101.53  102.23   14.55    0.00    0.28     0.3     0.3    0.32    0.75    1.03    3.88    5.85    5.38    5.23    0.16    0.15    0.15    0.12    0.11    0.11    0.09    0.09    0.07    0.07    0.45    0.48    0.50    0.44    0.86    1.14    3.97    5.93    5.44    5.29
 2015 272   108    60     2    83.1    81.0     2.1  102.50  139.39    2.55    0.00    0.00  102.50  102.73   14.55    0.00    0.21     0.3     0.4    0.33    0.76    1.05    3.93    5.89    5.40    5.25    0.19    0.15    0.15    0.12    0.11    0.11    0.09    0.09    0.07    0.07    0.40    0.46    0.51    0.45    0.87    1.16    4.02    5.97    5.47    5.32
 2015 273   109    60     2    83.6    81.4     2.2  103.44  140.27    2.55    0.00    0.00  103.44  103.20   14.55    0.00    0.19     0.3     0.3    0.32    0.74    1.08    3.97    5.96    5.43    5.27    0.20    0.17    0.18    0.12    0.12    0.11    0.09    0.09    0.07    0.07    0.39    0.44    0.47    0.44    0.86    1.19    4.06    6.05    5.49    5.34
 2015 274   110    60     2    82.9    80.6     2.2  104.41  141.16    2.55    0.00    0.00  104.41  103.58   15.82    0.00    0.25     0.3     0.3    0.29    0.66    1.00    3.49    5.56    5.33    5.34    0.21    0.18    0.19    0.13    0.13    0.12    0.09    0.09    0.07    0.07    0.46    0.46    0.47    0.41    0.79    1.11    3.58    5.64    5.40    5.41
 2015 275   111    60     2    83.3    81.2     2.2  105.40  142.21    2.55    0.00    0.00  105.40  103.89   16.03    0.00    0.36     0.3     0.3    0.31    0.66    1.00    3.46    5.53    5.34    5.37    0.18    0.17    0.17    0.12    0.13    0.11    0.09    0.09    0.07    0.07    0.55    0.50    0.51    0.44    0.79    1.11    3.55    5.62    5.40    5.44
 2015 276   112    60     2    83.8    81.7     2.1  106.43  143.31    2.55    0.00    0.00  106.43  104.41   16.03    0.00    0.37     0.3     0.3    0.32    0.68    1.01    3.52    5.58    5.36    5.39    0.16    0.16    0.16    0.12    0.12    0.11    0.09    0.09    0.06    0.07    0.54    0.50    0.50    0.44    0.80    1.12    3.61    5.66    5.43    5.46
 2015 277   113    60     2    84.3    82.3     2.0  107.49  144.42    2.55    0.00    0.00  107.49  104.95   16.03    0.00    0.37     0.3     0.3    0.32    0.70    1.03    3.58    5.62    5.39    5.42    0.15    0.15    0.15    0.12    0.11    0.11    0.09    0.09    0.06    0.06    0.52    0.49    0.49    0.44    0.81    1.14    3.66    5.71    5.45    5.48
 2015 278   114    60     2    84.9    82.9     2.0  108.58  145.57    2.55    0.00    0.00  108.58  105.51   16.03    0.00    0.33     0.3     0.3    0.32    0.72    1.02    3.63    5.67    5.42    5.45    0.14    0.14    0.14    0.11    0.11    0.10    0.08    0.08    0.06    0.06    0.47    0.49    0.49    0.43    0.83    1.13    3.71    5.75    5.49    5.51
 2015 279   115    60     2    85.4    83.5     2.0  109.68  146.70    2.55    0.00    0.00  109.68  106.05   16.03    0.00    0.27     0.4     0.4    0.32    0.73    1.02    3.67    5.72    5.46    5.48    0.14    0.14    0.14    0.11    0.10    0.10    0.08    0.08    0.06    0.06    0.40    0.49    0.51    0.43    0.84    1.12    3.76    5.80    5.52    5.55
 2015 280   116    60     2    86.0    84.0     2.0  110.77  147.78    2.55    0.00    0.00  110.77  106.58   16.03    0.00    0.30     0.3     0.3    0.33    0.75    1.03    3.73    5.76    5.48    5.51    0.17    0.14    0.14    0.11    0.10    0.10    0.08    0.08    0.06    0.06    0.47    0.47    0.48    0.44    0.85    1.13    3.82    5.84    5.55    5.57
 2015 281   117    60     2    86.5    84.6     2.0  111.86  148.86    2.55    0.00    0.00  111.86  107.10   16.03    0.00    0.36     0.3     0.3    0.32    0.76    1.04    3.79    5.81    5.51    5.53    0.16    0.14    0.14    0.11    0.10    0.10    0.08    0.08    0.06    0.06    0.52    0.47    0.47    0.43    0.86    1.15    3.87    5.89    5.57    5.60
 2015 282   118    60     2    87.1    85.1     2.0  112.92  149.92    2.55    0.00    0.00  112.92  107.64   16.03    0.00    0.37     0.3     0.3    0.32    0.76    1.06    3.85    5.85    5.53    5.56    0.15    0.14    0.14    0.11    0.10    0.10    0.08    0.08    0.06    0.06    0.51    0.47    0.47    0.43    0.87    1.16    3.93    5.93    5.60    5.62
 2015 283   119    60     2    87.6    85.6     2.0  113.95  150.96    2.55    0.00    0.00  113.95  108.18   16.03    0.00    0.34     0.3     0.3    0.31    0.77    1.04    3.89    5.89    5.57    5.59    0.15    0.14    0.14    0.10    0.10    0.10    0.08    0.08    0.06    0.06    0.48    0.47    0.47    0.41    0.87    1.15    3.97    5.98    5.63    5.65
 2015 284   120    60     2    88.1    86.1     2.0  114.97  151.99    2.55    0.00    0.00  114.97  108.69   16.03    0.00    0.32     0.3     0.3    0.31    0.77    1.03    3.93    5.94    5.60    5.62    0.14    0.14    0.14    0.10    0.11    0.11    0.08    0.08    0.06    0.06    0.46    0.47    0.47    0.41    0.88    1.13    4.02    6.02    5.66    5.68
 2015 285   121    60     2    88.6    86.6     1.9  115.98  153.02    2.55    0.00    0.00  115.98  109.19   16.03    0.00    0.33     0.3     0.3    0.30    0.78    1.02    3.98    5.98    5.63    5.65    0.14    0.14    0.13    0.09    0.11    0.11    0.08    0.08    0.06    0.06    0.47    0.46    0.45    0.40    0.88    1.12    4.06    6.06    5.69    5.72
 2015 286   122    60     2    89.1    87.2     1.9  116.99  154.05    2.55    0.00    0.00  116.99  109.67   16.03    0.00    0.33     0.3     0.3    0.30    0.78    1.00    4.02    6.02    5.66    5.68    0.14    0.13    0.12    0.09    0.11    0.11    0.08    0.08    0.06    0.06    0.48    0.45    0.44    0.39    0.89    1.11    4.11    6.11    5.73    5.75
 2015 287   123    60     2    89.6    87.7     1.9  117.98  155.07    2.55    0.00    0.00  117.98  110.16   16.03    0.00    0.34     0.3     0.3    0.30    0.79    0.99    4.07    6.07    5.70    5.72    0.13    0.12    0.11    0.08    0.10    0.10    0.08    0.08    0.06    0.06    0.47    0.44    0.43    0.38    0.89    1.10    4.15    6.15    5.76    5.78
 2015 288   124    60     2    90.1    88.2     1.8  118.95  156.09    2.55    0.00    0.00  118.95  110.63   16.03    0.00    0.33     0.3     0.3    0.30    0.79    0.98    4.11    6.11    5.73    5.75    0.12    0.11    0.11    0.07    0.10    0.10    0.08    0.08    0.06    0.06    0.45    0.43    0.42    0.37    0.90    1.09    4.20    6.20    5.79    5.81
 2015 289   125    60     2    90.6    88.8     1.8  119.91  157.10    2.55    0.00    0.00  119.91  111.06   16.03    0.00    0.37     0.3     0.3    0.29    0.80    0.98    4.16    6.16    5.76    5.78    0.10    0.10    0.10    0.07    0.10    0.10    0.08    0.08    0.06    0.06    0.47    0.42    0.41    0.36    0.90    1.08    4.24    6.24    5.82    5.85
 2015 290   126    60     2    91.2    89.4     1.8  120.85  158.08    2.55    0.00    0.00  120.85  111.45   16.03    0.00    0.44     0.3     0.3    0.29    0.80    0.97    4.21    6.20    5.80    5.82    0.09    0.09    0.09    0.06    0.10    0.10    0.08    0.08    0.06    0.06    0.53    0.40    0.40    0.35    0.90    1.07    4.29    6.29    5.86    5.88
 2015 291   127    60     2    91.7    90.0     1.7  121.77  159.03    2.55    0.00    0.00  121.77  111.82   16.03    0.00    0.50     0.3     0.3    0.28    0.80    0.96    4.25    6.25    5.83    5.85    0.08    0.09    0.09    0.06    0.10    0.10    0.08    0.08    0.06    0.06    0.58    0.39    0.40    0.34    0.90    1.06    4.33    6.33    5.89    5.91
 2015 292   128    60     2    92.2    90.5     1.7  122.66  159.94    2.55    0.00    0.00  122.66  112.18   16.03    0.00    0.54     0.3     0.3    0.28    0.80    0.95    4.30    6.29    5.86    5.88    0.08    0.09    0.09    0.05    0.09    0.09    0.08    0.08    0.06    0.06    0.62    0.39    0.39    0.34    0.90    1.04    4.38    6.37    5.92    5.94
 2015 293   129    60     2    92.6    90.9     1.7  123.54  160.81    2.55    0.00    0.00  123.54  112.70   16.03    0.00    0.30     0.3     0.3    0.28    0.80    0.93    4.34    6.33    5.89    5.91    0.11    0.08    0.09    0.05    0.09    0.09    0.08    0.08    0.06    0.06    0.41    0.38    0.38    0.33    0.89    1.03    4.42    6.42    5.96    5.98
 2015 294   130    60     2    93.1    91.4     1.7  124.41  161.68    2.55    0.00    0.00  124.41  113.06   16.03    0.00    0.32     0.3     0.3    0.28    0.79    0.92    4.38    6.38    5.92    5.94    0.12    0.08    0.08    0.05    0.09    0.09    0.08    0.08    0.06    0.06    0.44    0.37    0.38    0.33    0.88    1.01    4.47    6.46    5.99    6.01
 2015 295   131    60     2    93.6    91.9     1.7  125.25  162.55    2.55    0.00    0.00  125.25  113.42   16.03    0.00    0.32     0.3     0.3    0.28    0.78    0.90    4.43    6.42    5.96    5.97    0.12    0.08    0.08    0.05    0.08    0.08    0.08    0.08    0.06    0.06    0.44    0.37    0.38    0.33    0.87    0.99    4.51    6.50    6.02    6.04
 2015 296   132    60     2    94.0    92.4     1.7  126.08  163.40    2.55    0.00    0.00  126.08  113.76   16.03    0.00    0.35     0.3     0.3    0.28    0.77    0.89    4.47    6.46    5.99    6.01    0.11    0.07    0.08    0.05    0.08    0.08    0.08    0.08    0.06    0.06    0.46    0.36    0.37    0.33    0.85    0.97    4.55    6.55    6.05    6.07
 2015 297   133    60     2    94.5    92.9     1.6  126.89  164.23    2.55    0.00    0.00  126.89  114.07   16.03    0.00    0.41     0.3     0.3    0.28    0.76    0.87    4.51    6.50    6.02    6.04    0.10    0.07    0.08    0.05    0.08    0.08    0.08    0.09    0.06    0.06    0.51    0.36    0.37    0.32    0.84    0.95    4.60    6.59    6.08    6.10
 2015 298   134    60     2    95.0    93.4     1.6  127.68  165.05    2.55    0.00    0.00  127.68  114.37   16.03    0.00    0.47     0.3     0.3    0.27    0.75    0.85    4.55    6.55    6.05    6.07    0.09    0.07    0.07    0.05    0.07    0.07    0.09    0.09    0.06    0.06    0.55    0.36    0.36    0.32    0.82    0.92    4.64    6.63    6.11    6.13
 2015 299   135    60     2    95.5    93.9     1.6  128.46  165.85    2.55    0.00    0.00  128.46  114.65   16.03    0.00    0.51     0.3     0.3    0.27    0.74    0.83    4.60    6.59    6.08    6.10    0.08    0.07    0.07    0.05    0.07    0.07    0.09    0.09    0.06    0.06    0.59    0.35    0.36    0.32    0.81    0.90    4.68    6.67    6.15    6.16
 2015 300   136    60     2    96.0    94.5     1.6  129.23  166.65    2.55    0.00    0.00  129.23  114.91   16.03    0.00    0.56     0.3     0.3    0.27    0.73    0.82    4.64    6.63    6.11    6.13    0.07    0.06    0.07    0.05    0.06    0.06    0.08    0.09    0.06    0.06    0.63    0.35    0.36    0.32    0.79    0.88    4.73    6.72    6.18    6.20
 2015 301   137    60     2    96.6    95.0     1.5  130.00  167.45    2.55    0.00    0.00  130.00  115.14   16.03    0.00    0.48     0.3     0.3    0.27    0.73    0.82    4.69    6.67    6.15    6.16    0.07    0.06    0.07    0.05    0.06    0.06    0.08    0.08    0.06    0.06    0.55    0.40    0.36    0.32    0.79    0.87    4.77    6.76    6.21    6.23
 2015 302   138    60     2    97.0    95.4     1.5  130.82  168.27    2.55    0.00    0.00  130.82  115.56   16.03    0.00    0.25     0.3     0.3    0.27    0.73    0.81    4.73    6.72    6.18    6.20    0.11    0.07    0.06    0.05    0.05    0.05    0.08    0.08    0.06    0.06    0.36    0.38    0.35    0.32    0.78    0.87    4.82    6.80    6.24    6.26
 2015 303   139    60     2    97.8    96.3     1.6  131.69  169.11    2.55    0.00    0.00  131.69  115.56   16.03    0.00    0.36     0.4     0.3    0.31    0.76    0.90    4.80    6.76    6.20    6.21    0.13    0.10    0.06    0.04    0.05    0.05    0.08    0.08    0.06    0.06    0.48    0.45    0.40    0.36    0.81    0.95    4.88    6.85    6.26    6.28
 2015 304   140    60     2    98.7    97.1     1.5  132.53  169.97    2.55    0.00    0.00  132.53  115.56   16.03    0.00    0.49     0.4     0.4    0.35    0.79    0.98    4.86    6.81    6.22    6.23    0.13    0.10    0.06    0.04    0.05    0.05    0.08    0.08    0.06    0.06    0.62    0.51    0.44    0.40    0.84    1.02    4.94    6.89    6.28    6.29
 2015 305   141    60     2    99.5    98.0     1.5  133.35  170.81    2.55    0.00    0.00  133.35  115.56   16.03    0.00    0.47     0.5     0.4    0.38    0.82    1.00    4.91    6.85    6.25    6.26    0.12    0.09    0.05    0.04    0.05    0.05    0.08    0.08    0.06    0.06    0.59    0.61    0.48    0.42    0.86    1.05    4.99    6.93    6.31    6.33
