*SOIL WATER DAILY OUTPUT FILE

*DSSAT Cropping System Model Ver. 4.7.5.008 -release  JAN 07, 2021 20:14:37

*RUN   1        : ERiMA DCC1                MZCER047 ETMZmelk    1
 MODEL          : MZCER047 - Maize
 EXPERIMENT     : ETMZmelk SN MELKSSAL
 DATA PATH      : C:\IRI\Python_Dash\ET_DSS_hist\TEST\
 TREATMENT  1   : ERiMA DCC1                MZCER047
  
!                                                                                                 Soil water content (mm3/mm3) by soil depth (cm):
!                                                                                                 0-5    5-15   15-20   20-35   35-50   50-65   65-81   81-97  97-118 118-200
@YEAR DOY   DAS  SWTD  SWXD   ROFC   DRNC   PREC  IR#C  IRRC  DTWT    MWTD  TDFD  TDFC   ROFD    SW1D    SW2D    SW3D    SW4D    SW5D    SW6D    SW7D    SW8D    SW9D    SW10
 1981 164     0   586   288      0      0      0     0     0     0    0.00   0.0   0.0   0.00   0.231   0.231   0.231   0.221   0.316   0.316   0.304   0.304   0.305   0.305
 1981 165     1   585   287      0      0      0     0     0   100    0.00   0.0   0.0   0.00   0.215   0.230   0.231   0.221   0.316   0.316   0.304   0.304   0.305   0.305
 1981 166     2   584   286      0      0      0     0     0   200    0.00   0.0   0.0   0.00   0.200   0.229   0.230   0.221   0.316   0.316   0.304   0.304   0.305   0.305
 1981 167     3   583   285      0      0      0     0     0   200    0.00   0.0   0.0   0.00   0.186   0.228   0.230   0.221   0.316   0.316   0.304   0.304   0.305   0.305
 1981 168     4   583   284      0      0      0     0     0   200    0.00   0.0   0.0   0.00   0.174   0.227   0.230   0.220   0.316   0.316   0.304   0.304   0.305   0.305
 1981 169     5   582   284      0      0      0     0     0   200    0.00   0.0   0.0   0.00   0.162   0.226   0.229   0.220   0.316   0.316   0.304   0.304   0.305   0.305
 1981 170     6   581   283      0      0      0     0     0   200    0.00   0.0   0.0   0.00   0.152   0.225   0.229   0.220   0.315   0.316   0.304   0.304   0.305   0.305
 1981 171     7   580   282      0      0      0     0     0   200    0.00   0.0   0.0   0.00   0.143   0.224   0.229   0.220   0.315   0.316   0.304   0.304   0.305   0.305
 1981 172     8   580   282      0      0      0     0     0   200    0.00   0.0   0.0   0.00   0.134   0.223   0.228   0.220   0.315   0.316   0.304   0.304   0.305   0.305
 1981 173     9   579   281      0      0      0     0     0   200    0.00   0.0   0.0   0.00   0.127   0.221   0.228   0.220   0.315   0.316   0.304   0.304   0.305   0.305
 1981 174    10   579   281      0      0      0     0     0   200    0.00   0.0   0.0   0.00   0.120   0.220   0.228   0.220   0.315   0.315   0.304   0.304   0.305   0.305
 1981 175    11   583   285      0      0      5     0     0   200    0.00   0.0   0.0   0.00   0.216   0.219   0.227   0.219   0.315   0.315   0.304   0.304   0.305   0.305
 1981 176    12   586   288      0      0     10     0     0   200    0.00   0.0   0.0   0.00   0.260   0.228   0.227   0.219   0.315   0.315   0.304   0.304   0.305   0.305
 1981 177    13   585   287      0      0     10     0     0   200    0.00   0.0   0.0   0.00   0.239   0.226   0.226   0.219   0.315   0.315   0.304   0.304   0.305   0.305
 1981 178    14   584   286      0      0     10     0     0   200    0.00   0.0   0.0   0.00   0.219   0.225   0.226   0.219   0.315   0.315   0.304   0.304   0.305   0.305
 1981 179    15   583   284      0      0     10     0     0   200    0.00   0.0   0.0   0.00   0.202   0.222   0.225   0.219   0.315   0.315   0.304   0.304   0.305   0.305
 1981 180    16   585   287      0      0     13     0     0   200    0.00   0.0   0.0   0.00   0.247   0.221   0.223   0.219   0.314   0.315   0.304   0.304   0.305   0.305
 1981 181    17   583   285      0      0     13     0     0   200    0.00   0.0   0.0   0.00   0.224   0.219   0.222   0.219   0.314   0.315   0.303   0.304   0.305   0.305
 1981 182    18   582   284      0      0     13     0     0   200    0.00   0.0   0.0   0.00   0.205   0.217   0.221   0.218   0.314   0.315   0.303   0.304   0.305   0.305
 1981 183    19   581   282      0      0     13     0     0   200    0.00   0.0   0.0   0.00   0.190   0.214   0.219   0.218   0.314   0.315   0.303   0.304   0.305   0.305
 1981 184    20   584   286      0      0     18     0     0   200    0.00   0.0   0.0   0.00   0.257   0.218   0.216   0.218   0.314   0.315   0.303   0.304   0.305   0.305
 1981 185    21   583   285      0      0     22     0     0   200    0.00   0.0   0.0   0.00   0.268   0.231   0.212   0.215   0.311   0.312   0.301   0.302   0.303   0.304
 1981 186    22   578   280      0      0     22     0     0   200    0.00   0.0   0.0   0.00   0.242   0.224   0.208   0.212   0.308   0.310   0.300   0.300   0.302   0.302
 1981 187    23   576   278      0      0     22     0     0   200    0.00   0.0   0.0   0.00   0.215   0.219   0.207   0.211   0.308   0.310   0.300   0.300   0.302   0.302
 1981 188    24   574   275      0      0     22     0     0   200    0.00   0.0   0.0   0.00   0.194   0.212   0.205   0.210   0.308   0.310   0.300   0.300   0.302   0.302
 1981 189    25   572   273      0      0     22     0     0   200    0.00   0.0   0.0   0.00   0.179   0.205   0.202   0.207   0.308   0.310   0.300   0.300   0.302   0.302
 1981 190    26   570   272      0      0     22     0     0   200    0.00   0.0   0.0   0.00   0.167   0.201   0.200   0.204   0.308   0.310   0.300   0.300   0.302   0.302
 1981 191    27   578   280      0      0     32     0     0   200    0.00   0.0   0.0   0.00   0.296   0.228   0.197   0.199   0.308   0.310   0.300   0.300   0.302   0.302
 1981 192    28   587   289      0      0     45     0     0   200    0.00   0.0   0.0   0.27   0.322   0.279   0.267   0.202   0.306   0.309   0.298   0.299   0.301   0.302
 1981 193    29   607   309      7      0     75     0     0   200    0.00   0.0   0.0   6.23   0.323   0.319   0.322   0.275   0.319   0.314   0.298   0.299   0.300   0.301
 1981 194    30   599   301      7      2     75     0     0   200    0.00   0.0   0.0   0.00   0.263   0.269   0.274   0.265   0.317   0.314   0.303   0.303   0.304   0.304
 1981 195    31   594   296      7      2     75     0     0   200    0.00   0.0   0.0   0.00   0.244   0.251   0.256   0.261   0.315   0.315   0.303   0.303   0.304   0.304
 1981 196    32   591   293      7      2     75     0     0   200    0.00   0.0   0.0   0.00   0.218   0.241   0.248   0.259   0.315   0.315   0.303   0.303   0.304   0.304
 1981 197    33   588   290      7      2     75     0     0   200    0.00   0.0   0.0   0.00   0.198   0.229   0.238   0.257   0.315   0.315   0.303   0.303   0.304   0.304
 1981 198    34   593   295      7      2     83     0     0   200    0.00   0.0   0.0   0.00   0.287   0.243   0.228   0.254   0.314   0.315   0.303   0.303   0.304   0.304
 1981 199    35   598   300      7      2     92     0     0   200    0.00   0.0   0.0   0.02   0.321   0.267   0.262   0.256   0.313   0.314   0.302   0.302   0.304   0.304
 1981 200    36   594   296      7      2     92     0     0   200    0.00   0.0   0.0   0.00   0.267   0.250   0.251   0.260   0.315   0.315   0.303   0.302   0.303   0.303
 1981 201    37   598   300      7      2    101     0     0   200    0.00   0.0   0.0   0.00   0.324   0.263   0.264   0.263   0.314   0.314   0.302   0.301   0.303   0.303
 1981 202    38   594   296      7      2    101     0     0   200    0.00   0.0   0.0   0.00   0.268   0.248   0.249   0.260   0.315   0.315   0.303   0.303   0.305   0.303
 1981 203    39   590   292      7      2    101     0     0   200    0.00   0.0   0.0   0.00   0.250   0.239   0.239   0.256   0.314   0.315   0.303   0.303   0.304   0.303
 1981 204    40   605   307      8      2    122     0     0   200    0.00   0.0   0.0   1.82   0.323   0.296   0.299   0.266   0.318   0.317   0.305   0.303   0.304   0.302
 1981 205    41   612   314      9      2    134     0     0   200    0.00   0.0   0.0   0.49   0.321   0.301   0.315   0.278   0.328   0.323   0.308   0.306   0.306   0.302
 1981 206    42   618   320      9      2    144     0     0   200    0.00   0.0   0.0   0.30   0.325   0.300   0.316   0.284   0.335   0.330   0.314   0.310   0.308   0.307
 1981 207    43   625   327      9      2    155     0     0   200    0.00   0.0   0.0   0.30   0.330   0.304   0.320   0.288   0.340   0.336   0.319   0.315   0.311   0.309
 1981 208    44   627   329      9      2    160     0     0   200    0.00   0.0   0.0   0.00   0.325   0.284   0.315   0.282   0.339   0.338   0.322   0.319   0.314   0.312
 1981 209    45   626   328      9      4    166     0     0   199    0.00   0.0   0.0   0.00   0.323   0.274   0.302   0.276   0.335   0.336   0.323   0.321   0.317   0.314
 1981 210    46   631   333     10      7    177     0     0   199    0.00   0.0   0.0   0.37   0.330   0.299   0.320   0.279   0.335   0.336   0.322   0.322   0.318   0.316
 1981 211    47   643   345     13     10    198     0     0   198    0.00   0.0   0.0   3.03   0.330   0.319   0.319   0.302   0.348   0.344   0.327   0.325   0.319   0.318
 1981 212    48   640   342     13     14    203     0     0   198    0.00   0.0   0.0   0.00   0.322   0.291   0.319   0.289   0.346   0.345   0.330   0.328   0.322   0.319
 1981 213    49   636   338     13     18    208     0     0   198    0.00   0.0   0.0   0.00   0.318   0.276   0.305   0.279   0.339   0.342   0.329   0.328   0.323   0.321
 1981 214    50   652   354     20     23    239     0     0   197    0.00   0.0   0.0   6.97   0.329   0.320   0.320   0.309   0.354   0.350   0.333   0.331   0.324   0.322
 1981 215    51   616   317     20     56    239     0     0   199    0.00   0.0   0.0   0.00   0.271   0.271   0.271   0.275   0.330   0.329   0.315   0.315   0.313   0.312
 1981 216    52   601   303     20     66    239     0     0   200    0.00   0.0   0.0   0.00   0.250   0.252   0.252   0.262   0.320   0.321   0.308   0.308   0.308   0.308
 1981 217    53   595   297     20     68    239     0     0   200    0.00   0.0   0.0   0.00   0.235   0.238   0.239   0.256   0.316   0.317   0.306   0.305   0.308   0.307
 1981 218    54   610   312     22     68    260     0     0   200    0.00   0.0   0.0   1.91   0.324   0.296   0.298   0.264   0.318   0.319   0.306   0.306   0.307   0.307
 1981 219    55   600   302     22     74    260     0     0   200    0.00   0.0   0.0   0.00   0.268   0.259   0.260   0.256   0.316   0.318   0.306   0.306   0.307   0.307
 1981 220    56   595   297     22     74    260     0     0   200    0.00   0.0   0.0   0.00   0.247   0.245   0.246   0.250   0.314   0.317   0.306   0.305   0.307   0.307
 1981 221    57   590   292     22     74    260     0     0   200    0.00   0.0   0.0   0.00   0.231   0.231   0.231   0.243   0.312   0.315   0.306   0.305   0.306   0.307
 1981 222    58   586   288     22     74    260     0     0   200    0.00   0.0   0.0   0.00   0.218   0.219   0.220   0.237   0.310   0.313   0.305   0.305   0.306   0.306
 1981 223    59   588   290     22     74    265     0     0   200    0.00   0.0   0.0   0.00   0.279   0.227   0.212   0.229   0.307   0.311   0.305   0.305   0.306   0.306
 1981 224    60   597   299     22     74    277     0     0   200    0.00   0.0   0.0   0.10   0.329   0.272   0.263   0.227   0.305   0.310   0.305   0.305   0.306   0.306
 1981 225    61   602   304     22     74    287     0     0   200    0.00   0.0   0.0   0.14   0.325   0.288   0.298   0.246   0.303   0.308   0.305   0.305   0.306   0.306
 1981 226    62   601   303     22     74    291     0     0   200    0.00   0.0   0.0   0.00   0.313   0.274   0.295   0.260   0.304   0.305   0.305   0.305   0.306   0.306
 1981 227    63   597   299     22     74    291     0     0   200    0.00   0.0   0.0   0.00   0.268   0.253   0.262   0.258   0.313   0.309   0.305   0.305   0.306   0.306
 1981 228    64   598   300     22     74    295     0     0   200    0.00   0.0   0.0   0.00   0.291   0.258   0.261   0.258   0.311   0.306   0.305   0.304   0.306   0.306
 1981 229    65   596   298     22     74    298     0     0   200    0.00   0.0   0.0   0.00   0.293   0.258   0.260   0.257   0.309   0.303   0.304   0.304   0.306   0.306
 1981 230    66   598   300     22     74    305     0     0   200    0.00   0.0   0.0   0.00   0.321   0.263   0.267   0.258   0.307   0.298   0.304   0.304   0.305   0.306
 1981 231    67   592   294     22     74    305     0     0   200    0.00   0.0   0.0   0.00   0.270   0.249   0.249   0.256   0.311   0.292   0.304   0.304   0.305   0.306
 1981 232    68   591   293     22     74    309     0     0   200    0.00   0.0   0.0   0.00   0.289   0.254   0.251   0.250   0.308   0.287   0.304   0.304   0.305   0.306
 1981 233    69   587   289     22     74    309     0     0   200    0.00   0.0   0.0   0.00   0.260   0.249   0.246   0.244   0.304   0.282   0.304   0.304   0.305   0.305
 1981 234    70   603   305     25     74    332     0     0   200    0.00   0.0   0.0   2.56   0.330   0.312   0.319   0.264   0.309   0.277   0.304   0.304   0.305   0.305
 1981 235    71   599   301     25     74    332     0     0   200    0.00   0.0   0.0   0.00   0.278   0.272   0.274   0.258   0.313   0.311   0.304   0.304   0.305   0.305
 1981 236    72   595   297     25     74    332     0     0   200    0.00   0.0   0.0   0.00   0.258   0.256   0.257   0.258   0.313   0.308   0.304   0.304   0.305   0.305
 1981 237    73   591   293     25     74    332     0     0   200    0.00   0.0   0.0   0.00   0.243   0.247   0.248   0.252   0.310   0.303   0.304   0.304   0.305   0.305
 1981 238    74   600   302     25     74    345     0     0   200    0.00   0.0   0.0   0.24   0.330   0.279   0.281   0.259   0.309   0.298   0.304   0.304   0.305   0.305
 1981 239    75   596   298     25     74    345     0     0   200    0.00   0.0   0.0   0.00   0.277   0.258   0.258   0.257   0.313   0.307   0.303   0.303   0.305   0.305
 1981 240    76   591   293     25     74    345     0     0   200    0.00   0.0   0.0   0.00   0.255   0.249   0.249   0.251   0.309   0.301   0.303   0.303   0.304   0.305
 1981 241    77   586   288     25     74    345     0     0   200    0.00   0.0   0.0   0.00   0.237   0.239   0.239   0.245   0.306   0.295   0.303   0.303   0.304   0.305
 1981 242    78   598   300     26     74    362     0     0   200    0.00   0.0   0.0   0.78   0.329   0.287   0.287   0.256   0.303   0.289   0.303   0.303   0.304   0.305
 1981 243    79   594   296     26     74    362     0     0   200    0.00   0.0   0.0   0.00   0.279   0.263   0.263   0.258   0.313   0.294   0.303   0.303   0.304   0.305
 1981 244    80   591   293     26     74    362     0     0   200    0.00   0.0   0.0   0.00   0.259   0.255   0.255   0.257   0.311   0.289   0.303   0.303   0.304   0.304
 1981 245    81   585   287     26     74    362     0     0   200    0.00   0.0   0.0   0.00   0.237   0.242   0.243   0.249   0.307   0.282   0.303   0.303   0.304   0.304
 1981 246    82   581   282     26     74    362     0     0   200    0.00   0.0   0.0   0.00   0.221   0.233   0.234   0.242   0.304   0.276   0.303   0.303   0.304   0.304
 1981 247    83   586   287     26     74    372     0     0   200    0.00   0.0   0.0   0.00   0.324   0.255   0.242   0.235   0.301   0.270   0.302   0.303   0.304   0.304
 1981 248    84   591   293     26     74    382     0     0   200    0.00   0.0   0.0   0.07   0.330   0.284   0.283   0.245   0.298   0.265   0.302   0.303   0.304   0.304
 1981 249    85   586   288     26     74    382     0     0   200    0.00   0.0   0.0   0.00   0.277   0.260   0.260   0.257   0.304   0.259   0.302   0.302   0.304   0.304
 1981 250    86   598   299     27     74    398     0     0   200    0.00   0.0   0.0   0.99   0.329   0.301   0.311   0.267   0.315   0.253   0.302   0.302   0.303   0.304
 1981 251    87   592   294     27     74    398     0     0   200    0.00   0.0   0.0   0.00   0.276   0.266   0.270   0.258   0.312   0.285   0.302   0.302   0.303   0.304
 1981 252    88   587   289     27     74    398     0     0   200    0.00   0.0   0.0   0.00   0.255   0.252   0.254   0.256   0.311   0.279   0.302   0.302   0.303   0.304
 1981 253    89   583   285     27     74    398     0     0   200    0.00   0.0   0.0   0.00   0.239   0.244   0.246   0.249   0.308   0.273   0.302   0.302   0.303   0.304
 1981 254    90   586   288     27     74    405     0     0   200    0.00   0.0   0.0   0.00   0.302   0.258   0.254   0.242   0.305   0.268   0.301   0.302   0.303   0.304
 1981 255    91   581   283     27     74    405     0     0   200    0.00   0.0   0.0   0.00   0.267   0.251   0.251   0.240   0.302   0.261   0.301   0.302   0.303   0.303
 1981 256    92   577   279     27     74    405     0     0   200    0.00   0.0   0.0   0.00   0.254   0.246   0.244   0.233   0.300   0.256   0.301   0.301   0.303   0.303
 1981 257    93   579   281     27     74    410     0     0   200    0.00   0.0   0.0   0.00   0.297   0.259   0.252   0.228   0.298   0.252   0.301   0.301   0.303   0.303
 1981 258    94   583   285     27     74    418     0     0   200    0.00   0.0   0.0   0.01   0.330   0.277   0.280   0.234   0.295   0.246   0.301   0.301   0.303   0.303
 1981 259    95   584   286     27     74    424     0     0   200    0.00   0.0   0.0   0.00   0.330   0.278   0.292   0.246   0.292   0.240   0.301   0.301   0.302   0.303
 1981 260    96   580   281     27     74    424     0     0   200    0.00   0.0   0.0   0.00   0.278   0.258   0.264   0.255   0.298   0.233   0.300   0.301   0.302   0.303
 1981 261    97   582   284     27     74    430     0     0   200    0.00   0.0   0.0   0.00   0.315   0.267   0.272   0.258   0.295   0.228   0.300   0.301   0.302   0.303
 1981 262    98   601   303     32     74    459     0     0   200    0.00   0.0   0.0   5.78   0.331   0.322   0.322   0.289   0.324   0.238   0.300   0.301   0.302   0.303
 1981 263    99   596   298     32     74    459     0     0   200    0.00   0.0   0.0   0.00   0.278   0.276   0.276   0.265   0.316   0.302   0.300   0.300   0.302   0.303
 1981 264   100   596   297     32     74    464     0     0   200    0.00   0.0   0.0   0.00   0.302   0.269   0.279   0.261   0.316   0.300   0.300   0.300   0.302   0.302
 1981 265   101   598   300     32     74    470     0     0   200    0.00   0.0   0.0   0.00   0.328   0.274   0.287   0.263   0.317   0.299   0.299   0.300   0.302   0.302
 1981 266   102   593   295     32     74    470     0     0   200    0.00   0.0   0.0   0.00   0.278   0.257   0.262   0.256   0.313   0.309   0.304   0.301   0.301   0.302
 1981 267   103   588   290     32     74    470     0     0   200    0.00   0.0   0.0   0.00   0.257   0.251   0.254   0.249   0.310   0.302   0.304   0.301   0.301   0.302
 1981 268   104   583   285     32     74    470     0     0   200    0.00   0.0   0.0   0.00   0.240   0.243   0.246   0.241   0.307   0.295   0.304   0.301   0.301   0.302
 1981 269   105   588   290     32     74    478     0     0   200    0.00   0.0   0.0   0.00   0.317   0.263   0.259   0.238   0.304   0.290   0.303   0.301   0.301   0.302
 1981 270   106   584   286     32     74    478     0     0   200    0.00   0.0   0.0   0.00   0.274   0.255   0.252   0.241   0.301   0.284   0.303   0.301   0.301   0.302
 1981 271   107   579   281     32     74    478     0     0   200    0.00   0.0   0.0   0.00   0.256   0.251   0.245   0.234   0.298   0.277   0.303   0.301   0.301   0.302
 1981 272   108   576   278     32     74    478     0     0   200    0.00   0.0   0.0   0.00   0.243   0.244   0.238   0.228   0.296   0.271   0.303   0.301   0.301   0.302
 1981 273   109   570   272     32     74    478     0     0   200    0.00   0.0   0.0   0.00   0.223   0.234   0.229   0.218   0.292   0.263   0.303   0.301   0.301   0.302
 1981 274   110   566   268     32     74    478     0     0   200    0.00   0.0   0.0   0.00   0.210   0.227   0.222   0.211   0.289   0.256   0.303   0.301   0.301   0.302
 1981 275   111   566   268     32     74    483     0     0   200    0.00   0.0   0.0   0.00   0.274   0.234   0.217   0.203   0.285   0.249   0.303   0.301   0.301   0.302
 1981 276   112   570   271     32     74    491     0     0   200    0.00   0.0   0.0   0.00   0.328   0.259   0.237   0.195   0.282   0.241   0.303   0.300   0.301   0.301
 1981 277   113   570   272     32     74    496     0     0   200    0.00   0.0   0.0   0.00   0.328   0.271   0.266   0.193   0.278   0.233   0.302   0.300   0.300   0.301
 1981 278   114   564   266     32     74    496     0     0   200    0.00   0.0   0.0   0.00   0.275   0.254   0.252   0.202   0.273   0.224   0.302   0.300   0.300   0.301
 1981 279   115   558   260     32     74    496     0     0   200    0.00   0.0   0.0   0.00   0.254   0.248   0.242   0.193   0.269   0.215   0.302   0.300   0.300   0.301
 1981 280   116   552   254     32     74    496     0     0   200    0.00   0.0   0.0   0.00   0.232   0.238   0.233   0.184   0.265   0.206   0.302   0.300   0.300   0.301
 1981 281   117   546   248     32     74    496     0     0   200    0.00   0.0   0.0   0.00   0.209   0.228   0.223   0.174   0.261   0.198   0.302   0.300   0.300   0.301
 1981 282   118   541   242     32     74    496     0     0   200    0.00   0.0   0.0   0.00   0.194   0.217   0.216   0.165   0.256   0.188   0.302   0.300   0.300   0.301
 1981 283   119   536   238     32     74    496     0     0   200    0.00   0.0   0.0   0.00   0.182   0.211   0.211   0.160   0.251   0.177   0.302   0.300   0.300   0.301
 1981 284   120   532   234     32     74    496     0     0   200    0.00   0.0   0.0   0.00   0.173   0.208   0.208   0.157   0.246   0.167   0.302   0.300   0.300   0.301
 1981 285   121   527   229     32     74    496     0     0   200    0.00   0.0   0.0   0.00   0.162   0.202   0.203   0.153   0.235   0.157   0.302   0.300   0.300   0.301
 1981 286   122   522   224     32     74    496     0     0   200    0.00   0.0   0.0   0.00   0.151   0.197   0.198   0.148   0.220   0.151   0.302   0.300   0.300   0.301
 1981 287   123   517   219     32     74    496     0     0   200    0.00   0.0   0.0   0.00   0.142   0.193   0.194   0.145   0.202   0.147   0.302   0.300   0.300   0.301
 1981 288   124   512   214     32     74    496     0     0   200    0.00   0.0   0.0   0.00   0.134   0.189   0.191   0.142   0.181   0.143   0.302   0.300   0.300   0.301
 1981 289   125   507   209     32     74    496     0     0   200    0.00   0.0   0.0   0.00   0.126   0.186   0.188   0.139   0.158   0.141   0.302   0.299   0.300   0.301
 1981 290   126   502   204     32     74    496     0     0   200    0.00   0.0   0.0   0.00   0.119   0.181   0.182   0.134   0.147   0.135   0.301   0.299   0.300   0.301
 1981 291   127   500   202     32     74    496     0     0   200    0.00   0.0   0.0   0.00   0.113   0.177   0.179   0.131   0.143   0.132   0.301   0.299   0.300   0.301
 1981 292   128   498   200     32     74    496     0     0   200    0.00   0.0   0.0   0.00   0.107   0.174   0.176   0.129   0.140   0.130   0.301   0.299   0.300   0.301
 1981 293   129   496   198     32     74    496     0     0   200    0.00   0.0   0.0   0.00   0.102   0.172   0.174   0.127   0.137   0.128   0.301   0.299   0.300   0.301
 1981 294   130   495   197     32     74    496     0     0   200    0.00   0.0   0.0   0.00   0.097   0.169   0.172   0.125   0.136   0.126   0.301   0.299   0.300   0.301
 1981 295   131   494   196     32     74    496     0     0   200    0.00   0.0   0.0   0.00   0.093   0.167   0.170   0.124   0.134   0.125   0.301   0.299   0.300   0.301
 1981 296   132   493   195     32     74    496     0     0   200    0.00   0.0   0.0   0.00   0.089   0.166   0.169   0.122   0.133   0.123   0.301   0.299   0.300   0.301
 1981 297   133   492   194     32     74    496     0     0   200    0.00   0.0   0.0   0.00   0.085   0.165   0.167   0.121   0.132   0.122   0.301   0.299   0.300   0.301
 1981 298   134   491   193     32     74    496     0     0   200    0.00   0.0   0.0   0.00   0.082   0.165   0.166   0.121   0.130   0.121   0.301   0.299   0.300   0.301
 1981 299   135   491   193     32     74    496     0     0   200    0.00   0.0   0.0   0.00   0.079   0.164   0.166   0.121   0.129   0.121   0.301   0.299   0.300   0.301
 1981 300   136   491   192     32     74    496     0     0   200    0.00   0.0   0.0   0.00   0.077   0.163   0.166   0.121   0.129   0.121   0.301   0.299   0.300   0.301
 1981 301   137   490   192     32     74    496     0     0   200    0.00   0.0   0.0   0.00   0.074   0.163   0.165   0.121   0.128   0.121   0.301   0.299   0.300   0.301
 1981 302   138   490   192     32     74    496     0     0   200    0.00   0.0   0.0   0.00   0.072   0.162   0.165   0.121   0.127   0.121   0.301   0.299   0.300   0.301
 1981 303   139   490   191     32     74    496     0     0   200    0.00   0.0   0.0   0.00   0.070   0.161   0.165   0.121   0.126   0.121   0.301   0.299   0.300   0.301
 1981 304   140   489   191     32     74    496     0     0   200    0.00   0.0   0.0   0.00   0.068   0.161   0.165   0.121   0.126   0.121   0.301   0.299   0.300   0.301
 1981 305   141   489   191     32     74    496     0     0   200    0.00   0.0   0.0   0.00   0.066   0.160   0.164   0.121   0.125   0.121   0.301   0.299   0.300   0.301

*DSSAT Cropping System Model Ver. 4.7.5.008 -release  JAN 07, 2021 20:14:37

*RUN   2        : ERiMA DCC1                MZCER047 ETMZmelk    1
 MODEL          : MZCER047 - Maize
 EXPERIMENT     : ETMZmelk SN MELKSSAL
 DATA PATH      : C:\IRI\Python_Dash\ET_DSS_hist\TEST\
 TREATMENT  1   : ERiMA DCC1                MZCER047
  
!                                                                                                 Soil water content (mm3/mm3) by soil depth (cm):
!                                                                                                 0-5    5-15   15-20   20-35   35-50   50-65   65-81   81-97  97-118 118-200
@YEAR DOY   DAS  SWTD  SWXD   ROFC   DRNC   PREC  IR#C  IRRC  DTWT    MWTD  TDFD  TDFC   ROFD    SW1D    SW2D    SW3D    SW4D    SW5D    SW6D    SW7D    SW8D    SW9D    SW10
 1982 164     0   586   288      0      0      0     0     0     0    0.00   0.0   0.0   0.00   0.231   0.231   0.231   0.221   0.316   0.316   0.304   0.304   0.305   0.305
 1982 165     1   585   287      0      0      0     0     0   100    0.00   0.0   0.0   0.00   0.215   0.230   0.231   0.221   0.316   0.316   0.304   0.304   0.305   0.305
 1982 166     2   584   286      0      0      0     0     0   200    0.00   0.0   0.0   0.00   0.200   0.229   0.230   0.221   0.316   0.316   0.304   0.304   0.305   0.305
 1982 167     3   583   285      0      0      0     0     0   200    0.00   0.0   0.0   0.00   0.186   0.228   0.230   0.221   0.316   0.316   0.304   0.304   0.305   0.305
 1982 168     4   583   284      0      0      0     0     0   200    0.00   0.0   0.0   0.00   0.174   0.227   0.230   0.220   0.316   0.316   0.304   0.304   0.305   0.305
 1982 169     5   582   284      0      0      0     0     0   200    0.00   0.0   0.0   0.00   0.162   0.226   0.229   0.220   0.316   0.316   0.304   0.304   0.305   0.305
 1982 170     6   581   283      0      0      0     0     0   200    0.00   0.0   0.0   0.00   0.152   0.225   0.229   0.220   0.315   0.316   0.304   0.304   0.305   0.305
 1982 171     7   585   287      0      0      5     0     0   200    0.00   0.0   0.0   0.00   0.240   0.224   0.229   0.220   0.315   0.316   0.304   0.304   0.305   0.305
 1982 172     8   584   286      0      0      5     0     0   200    0.00   0.0   0.0   0.00   0.223   0.223   0.228   0.220   0.315   0.316   0.304   0.304   0.305   0.305
 1982 173     9   583   285      0      0      5     0     0   200    0.00   0.0   0.0   0.00   0.207   0.222   0.228   0.220   0.315   0.316   0.304   0.304   0.305   0.305
 1982 174    10   582   284      0      0      5     0     0   200    0.00   0.0   0.0   0.00   0.192   0.221   0.228   0.220   0.315   0.315   0.304   0.304   0.305   0.305
 1982 175    11   582   283      0      0      5     0     0   200    0.00   0.0   0.0   0.00   0.179   0.219   0.227   0.219   0.315   0.315   0.304   0.304   0.305   0.305
 1982 176    12   581   283      0      0      5     0     0   200    0.00   0.0   0.0   0.00   0.168   0.218   0.227   0.219   0.315   0.315   0.304   0.304   0.305   0.305
 1982 177    13   580   282      0      0      5     0     0   200    0.00   0.0   0.0   0.00   0.157   0.216   0.226   0.219   0.315   0.315   0.304   0.304   0.305   0.305
 1982 178    14   579   281      0      0      5     0     0   200    0.00   0.0   0.0   0.00   0.147   0.215   0.225   0.219   0.315   0.315   0.304   0.304   0.305   0.305
 1982 179    15   586   288      0      0     13     0     0   200    0.00   0.0   0.0   0.00   0.266   0.225   0.224   0.219   0.315   0.315   0.304   0.304   0.305   0.305
 1982 180    16   585   287      0      0     18     0     0   200    0.00   0.0   0.0   0.00   0.282   0.245   0.220   0.216   0.311   0.312   0.301   0.302   0.303   0.303
 1982 181    17   587   288      0      0     25     0     0   200    0.00   0.0   0.0   0.00   0.311   0.263   0.249   0.213   0.308   0.310   0.299   0.300   0.301   0.302
 1982 182    18   582   284      0      0     25     0     0   200    0.00   0.0   0.0   0.00   0.261   0.254   0.255   0.218   0.305   0.307   0.297   0.298   0.300   0.301
 1982 183    19   576   278      0      0     25     0     0   200    0.00   0.0   0.0   0.00   0.239   0.244   0.249   0.215   0.302   0.305   0.295   0.296   0.299   0.299
 1982 184    20   577   279      0      0     31     0     0   200    0.00   0.0   0.0   0.00   0.283   0.255   0.256   0.212   0.299   0.302   0.293   0.295   0.297   0.298
 1982 185    21   577   279      0      0     36     0     0   200    0.00   0.0   0.0   0.00   0.295   0.262   0.266   0.216   0.296   0.300   0.291   0.293   0.296   0.297
 1982 186    22   575   277      0      0     41     0     0   200    0.00   0.0   0.0   0.00   0.293   0.264   0.273   0.223   0.293   0.298   0.289   0.291   0.294   0.296
 1982 187    23   570   272      0      0     41     0     0   200    0.00   0.0   0.0   0.00   0.250   0.251   0.257   0.231   0.290   0.295   0.288   0.290   0.293   0.294
 1982 188    24   568   270      0      0     41     0     0   200    0.00   0.0   0.0   0.00   0.227   0.245   0.253   0.230   0.290   0.295   0.288   0.290   0.293   0.294
 1982 189    25   565   267      0      0     41     0     0   200    0.00   0.0   0.0   0.00   0.205   0.237   0.248   0.230   0.290   0.295   0.288   0.290   0.293   0.294
 1982 190    26   563   265      0      0     41     0     0   200    0.00   0.0   0.0   0.00   0.190   0.229   0.242   0.229   0.290   0.295   0.288   0.290   0.293   0.294
 1982 191    27   561   263      0      0     41     0     0   200    0.00   0.0   0.0   0.00   0.177   0.221   0.235   0.227   0.290   0.295   0.287   0.290   0.293   0.294
 1982 192    28   559   261      0      0     41     0     0   200    0.00   0.0   0.0   0.00   0.165   0.211   0.220   0.225   0.290   0.295   0.287   0.290   0.293   0.294
 1982 193    29   556   258      0      0     41     0     0   200    0.00   0.0   0.0   0.00   0.155   0.204   0.210   0.220   0.290   0.295   0.287   0.290   0.293   0.294
 1982 194    30   554   256      0      0     41     0     0   200    0.00   0.0   0.0   0.00   0.145   0.198   0.203   0.213   0.290   0.295   0.287   0.290   0.293   0.294
 1982 195    31   552   253      0      0     41     0     0   200    0.00   0.0   0.0   0.00   0.137   0.193   0.199   0.206   0.290   0.295   0.287   0.290   0.293   0.294
 1982 196    32   549   251      0      0     41     0     0   200    0.00   0.0   0.0   0.00   0.129   0.189   0.195   0.196   0.289   0.295   0.287   0.290   0.293   0.294
 1982 197    33   546   248      0      0     41     0     0   200    0.00   0.0   0.0   0.00   0.122   0.186   0.191   0.184   0.289   0.295   0.287   0.290   0.293   0.294
 1982 198    34   544   246      0      0     41     0     0   200    0.00   0.0   0.0   0.00   0.115   0.183   0.189   0.173   0.289   0.295   0.287   0.290   0.293   0.294
 1982 199    35   542   244      0      0     41     0     0   200    0.00   0.0   0.0   0.00   0.109   0.180   0.186   0.165   0.289   0.295   0.287   0.290   0.293   0.294
 1982 200    36   540   242      0      0     41     0     0   200    0.00   0.0   0.0   0.00   0.104   0.177   0.183   0.159   0.288   0.295   0.287   0.290   0.293   0.294
 1982 201    37   539   241      0      0     41     0     0   200    0.00   0.0   0.0   0.00   0.099   0.174   0.181   0.156   0.288   0.295   0.287   0.289   0.293   0.294
 1982 202    38   551   253      0      0     54     0     0   200    0.00   0.0   0.0   0.00   0.296   0.201   0.179   0.153   0.287   0.295   0.287   0.289   0.293   0.294
 1982 203    39   555   257      0      0     61     0     0   200    0.00   0.0   0.0   0.00   0.321   0.241   0.177   0.152   0.286   0.294   0.287   0.289   0.292   0.294
 1982 204    40   551   253      0      0     61     0     0   200    0.00   0.0   0.0   0.00   0.269   0.234   0.176   0.151   0.285   0.293   0.286   0.288   0.292   0.293
 1982 205    41   558   260      0      0     72     0     0   200    0.00   0.0   0.0   0.09   0.324   0.258   0.240   0.150   0.284   0.292   0.285   0.288   0.291   0.293
 1982 206    42   559   261      0      0     77     0     0   200    0.00   0.0   0.0   0.00   0.322   0.260   0.259   0.155   0.283   0.292   0.285   0.287   0.291   0.293
 1982 207    43   558   260      0      0     80     0     0   200    0.00   0.0   0.0   0.00   0.302   0.254   0.260   0.162   0.282   0.291   0.284   0.287   0.290   0.292
 1982 208    44   557   259      0      0     84     0     0   200    0.00   0.0   0.0   0.00   0.301   0.250   0.256   0.167   0.281   0.290   0.284   0.286   0.290   0.292
 1982 209    45   563   265      0      0     95     0     0   200    0.00   0.0   0.0   0.12   0.324   0.271   0.278   0.183   0.280   0.290   0.283   0.286   0.290   0.291
 1982 210    46   568   270      0      0    105     0     0   200    0.00   0.0   0.0   0.10   0.325   0.280   0.297   0.206   0.279   0.289   0.283   0.286   0.289   0.291
 1982 211    47   568   270      0      0    108     0     0   200    0.00   0.0   0.0   0.00   0.312   0.269   0.289   0.224   0.279   0.289   0.282   0.285   0.289   0.291
 1982 212    48   576   278      1      0    120     0     0   200    0.00   0.0   0.0   0.34   0.327   0.289   0.310   0.253   0.278   0.288   0.282   0.285   0.289   0.291
 1982 213    49   578   280      1      0    126     0     0   200    0.00   0.0   0.0   0.00   0.328   0.278   0.305   0.268   0.288   0.288   0.282   0.285   0.289   0.291
 1982 214    50   582   283      1      0    132     0     0   200    0.00   0.0   0.0   0.00   0.330   0.280   0.304   0.274   0.307   0.288   0.282   0.285   0.288   0.290
 1982 215    51   586   288      1      0    141     0     0   200    0.00   0.0   0.0   0.09   0.324   0.283   0.309   0.277   0.322   0.298   0.281   0.284   0.288   0.290
 1982 216    52   584   286      1      0    145     0     0   200    0.00   0.0   0.0   0.00   0.306   0.264   0.289   0.274   0.327   0.314   0.281   0.284   0.288   0.290
 1982 217    53   580   282      1      0    145     0     0   200    0.00   0.0   0.0   0.00   0.263   0.244   0.254   0.264   0.320   0.316   0.304   0.286   0.288   0.290
 1982 218    54   586   288      1      0    155     0     0   200    0.00   0.0   0.0   0.03   0.325   0.264   0.266   0.264   0.319   0.318   0.307   0.286   0.288   0.290
 1982 219    55   583   284      1      0    155     0     0   200    0.00   0.0   0.0   0.00   0.273   0.247   0.248   0.260   0.317   0.318   0.306   0.303   0.288   0.290
 1982 220    56   590   292      1      0    166     0     0   200    0.00   0.0   0.0   0.07   0.327   0.271   0.271   0.264   0.318   0.318   0.306   0.306   0.287   0.290
 1982 221    57   605   307      3      0    187     0     0   200    0.00   0.0   0.0   2.61   0.328   0.317   0.317   0.284   0.330   0.325   0.310   0.308   0.292   0.289
 1982 222    58   607   309      3      0    193     0     0   200    0.00   0.0   0.0   0.01   0.324   0.290   0.313   0.284   0.336   0.332   0.315   0.312   0.302   0.289
 1982 223    59   602   304      3      0    193     0     0   200    0.00   0.0   0.0   0.00   0.270   0.255   0.265   0.267   0.323   0.322   0.308   0.307   0.305   0.305
 1982 224    60   610   312      4      0    205     0     0   200    0.00   0.0   0.0   0.19   0.326   0.278   0.286   0.269   0.323   0.322   0.310   0.309   0.307   0.308
 1982 225    61   627   329      8      0    230     0     0   199    0.00   0.0   0.0   4.06   0.326   0.315   0.315   0.295   0.339   0.332   0.316   0.313   0.310   0.309
 1982 226    62   608   310      8     17    230     0     0   199    0.00   0.0   0.0   0.00   0.279   0.273   0.274   0.274   0.324   0.322   0.309   0.307   0.307   0.306
 1982 227    63   599   301      8     21    230     0     0   199    0.00   0.0   0.0   0.00   0.254   0.251   0.251   0.264   0.318   0.317   0.306   0.305   0.307   0.306
 1982 228    64   613   315      9     22    249     0     0   200    0.00   0.0   0.0   1.57   0.326   0.298   0.305   0.272   0.322   0.320   0.307   0.307   0.307   0.307
 1982 229    65   602   304      9     30    249     0     0   200    0.00   0.0   0.0   0.00   0.275   0.263   0.266   0.263   0.317   0.316   0.305   0.306   0.307   0.306
 1982 230    66   613   315     10     30    267     0     0   200    0.00   0.0   0.0   1.13   0.324   0.296   0.309   0.272   0.322   0.319   0.307   0.307   0.307   0.307
 1982 231    67   603   305     10     37    267     0     0   200    0.00   0.0   0.0   0.00   0.277   0.266   0.271   0.264   0.317   0.317   0.305   0.307   0.307   0.307
 1982 232    68   597   299     10     39    267     0     0   200    0.00   0.0   0.0   0.00   0.253   0.248   0.251   0.260   0.315   0.315   0.305   0.307   0.307   0.306
 1982 233    69   593   295     10     39    267     0     0   200    0.00   0.0   0.0   0.00   0.239   0.234   0.236   0.255   0.314   0.312   0.305   0.306   0.307   0.306
 1982 234    70   588   290     10     39    267     0     0   200    0.00   0.0   0.0   0.00   0.223   0.219   0.221   0.250   0.311   0.308   0.305   0.306   0.306   0.306
 1982 235    71   584   286     10     39    267     0     0   200    0.00   0.0   0.0   0.00   0.210   0.210   0.210   0.243   0.309   0.303   0.304   0.306   0.306   0.306
 1982 236    72   580   282     10     39    267     0     0   200    0.00   0.0   0.0   0.00   0.204   0.204   0.205   0.235   0.306   0.297   0.304   0.306   0.306   0.306
 1982 237    73   608   310     22     39    311     0     0   200    0.00   0.0   0.0  11.36   0.334   0.325   0.325   0.261   0.313   0.289   0.304   0.306   0.306   0.306
 1982 238    74   601   303     22     42    311     0     0   200    0.00   0.0   0.0   0.00   0.277   0.274   0.274   0.259   0.314   0.312   0.304   0.306   0.306   0.306
 1982 239    75   596   298     22     42    311     0     0   200    0.00   0.0   0.0   0.00   0.254   0.253   0.253   0.259   0.314   0.312   0.304   0.306   0.306   0.306
 1982 240    76   592   294     22     42    311     0     0   200    0.00   0.0   0.0   0.00   0.240   0.240   0.241   0.254   0.312   0.308   0.304   0.305   0.306   0.306
 1982 241    77   587   289     22     42    311     0     0   200    0.00   0.0   0.0   0.00   0.224   0.225   0.226   0.247   0.310   0.303   0.304   0.305   0.306   0.306
 1982 242    78   581   283     22     42    311     0     0   200    0.00   0.0   0.0   0.00   0.209   0.210   0.210   0.240   0.307   0.297   0.303   0.305   0.305   0.305
 1982 243    79   600   302     26     42    339     0     0   200    0.00   0.0   0.0   3.74   0.331   0.305   0.296   0.249   0.303   0.288   0.303   0.305   0.305   0.305
 1982 244    80   596   298     26     42    339     0     0   200    0.00   0.0   0.0   0.00   0.276   0.266   0.262   0.259   0.314   0.295   0.303   0.305   0.305   0.305
 1982 245    81   591   293     26     42    339     0     0   200    0.00   0.0   0.0   0.00   0.252   0.249   0.249   0.258   0.312   0.290   0.303   0.305   0.305   0.305
 1982 246    82   586   288     26     42    339     0     0   200    0.00   0.0   0.0   0.00   0.238   0.236   0.237   0.252   0.310   0.286   0.303   0.304   0.305   0.305
 1982 247    83   582   284     26     42    339     0     0   200    0.00   0.0   0.0   0.00   0.225   0.224   0.224   0.246   0.308   0.281   0.302   0.304   0.305   0.305
 1982 248    84   590   292     26     42    352     0     0   200    0.00   0.0   0.0   0.09   0.326   0.263   0.251   0.240   0.306   0.276   0.302   0.304   0.305   0.305
 1982 249    85   585   287     26     42    352     0     0   200    0.00   0.0   0.0   0.00   0.272   0.250   0.247   0.245   0.304   0.271   0.302   0.304   0.305   0.305
 1982 250    86   579   281     26     42    352     0     0   200    0.00   0.0   0.0   0.00   0.248   0.238   0.232   0.237   0.301   0.265   0.302   0.304   0.304   0.304
 1982 251    87   574   276     26     42    352     0     0   200    0.00   0.0   0.0   0.00   0.226   0.223   0.218   0.229   0.299   0.260   0.302   0.304   0.304   0.304
 1982 252    88   568   270     26     42    352     0     0   200    0.00   0.0   0.0   0.00   0.203   0.211   0.210   0.218   0.296   0.253   0.302   0.304   0.304   0.304
 1982 253    89   563   265     26     42    352     0     0   200    0.00   0.0   0.0   0.00   0.193   0.205   0.205   0.205   0.293   0.245   0.302   0.304   0.304   0.304
 1982 254    90   558   260     26     42    352     0     0   200    0.00   0.0   0.0   0.00   0.184   0.201   0.201   0.191   0.289   0.236   0.302   0.304   0.304   0.304
 1982 255    91   554   256     26     42    352     0     0   200    0.00   0.0   0.0   0.00   0.177   0.199   0.199   0.179   0.286   0.229   0.302   0.304   0.304   0.304
 1982 256    92   563   265     26     42    365     0     0   200    0.00   0.0   0.0   0.01   0.334   0.247   0.197   0.167   0.283   0.223   0.302   0.304   0.304   0.304
 1982 257    93   575   277     27     42    382     0     0   200    0.00   0.0   0.0   1.44   0.327   0.306   0.302   0.185   0.281   0.218   0.302   0.304   0.304   0.304
 1982 258    94   571   273     27     42    382     0     0   200    0.00   0.0   0.0   0.00   0.276   0.268   0.267   0.217   0.279   0.214   0.302   0.304   0.304   0.304
 1982 259    95   568   270     27     42    382     0     0   200    0.00   0.0   0.0   0.00   0.258   0.255   0.255   0.219   0.277   0.210   0.301   0.303   0.304   0.304
 1982 260    96   565   267     27     42    385     0     0   200    0.00   0.0   0.0   0.00   0.267   0.251   0.250   0.209   0.274   0.205   0.301   0.303   0.304   0.304
 1982 261    97   559   260     27     42    385     0     0   200    0.00   0.0   0.0   0.00   0.248   0.240   0.236   0.197   0.271   0.199   0.301   0.303   0.304   0.304
 1982 262    98   556   258     27     42    387     0     0   200    0.00   0.0   0.0   0.00   0.266   0.239   0.227   0.188   0.269   0.195   0.301   0.303   0.304   0.304
 1982 263    99   552   254     27     42    387     0     0   200    0.00   0.0   0.0   0.00   0.252   0.231   0.218   0.179   0.267   0.190   0.301   0.303   0.303   0.304
 1982 264   100   546   248     27     42    387     0     0   200    0.00   0.0   0.0   0.00   0.232   0.220   0.213   0.167   0.264   0.185   0.301   0.303   0.303   0.304
 1982 265   101   542   244     27     42    387     0     0   200    0.00   0.0   0.0   0.00   0.211   0.212   0.208   0.160   0.260   0.179   0.301   0.303   0.303   0.304
 1982 266   102   537   239     27     42    387     0     0   200    0.00   0.0   0.0   0.00   0.197   0.205   0.203   0.154   0.255   0.168   0.301   0.303   0.303   0.304
 1982 267   103   531   233     27     42    387     0     0   200    0.00   0.0   0.0   0.00   0.183   0.197   0.196   0.147   0.243   0.158   0.300   0.303   0.303   0.304
 1982 268   104   525   227     27     42    387     0     0   200    0.00   0.0   0.0   0.00   0.171   0.190   0.190   0.142   0.226   0.152   0.300   0.303   0.303   0.304
 1982 269   105   520   222     27     42    387     0     0   200    0.00   0.0   0.0   0.00   0.164   0.186   0.187   0.138   0.208   0.148   0.300   0.303   0.303   0.304
 1982 270   106   515   217     27     42    387     0     0   200    0.00   0.0   0.0   0.00   0.156   0.183   0.184   0.136   0.188   0.145   0.300   0.303   0.303   0.304
 1982 271   107   511   213     27     42    387     0     0   200    0.00   0.0   0.0   0.00   0.149   0.180   0.181   0.134   0.169   0.143   0.300   0.303   0.303   0.304
 1982 272   108   507   209     27     42    387     0     0   200    0.00   0.0   0.0   0.00   0.140   0.177   0.178   0.131   0.153   0.140   0.300   0.303   0.303   0.304
 1982 273   109   505   207     27     42    387     0     0   200    0.00   0.0   0.0   0.00   0.132   0.174   0.175   0.128   0.149   0.138   0.300   0.303   0.303   0.304
 1982 274   110   503   205     27     42    387     0     0   200    0.00   0.0   0.0   0.00   0.124   0.171   0.173   0.126   0.146   0.136   0.300   0.303   0.303   0.303
 1982 275   111   501   203     27     42    387     0     0   200    0.00   0.0   0.0   0.00   0.118   0.169   0.171   0.125   0.144   0.134   0.300   0.302   0.303   0.303
 1982 276   112   500   202     27     42    387     0     0   200    0.00   0.0   0.0   0.00   0.111   0.167   0.170   0.123   0.142   0.133   0.300   0.302   0.303   0.303
 1982 277   113   499   201     27     42    387     0     0   200    0.00   0.0   0.0   0.00   0.106   0.166   0.168   0.122   0.141   0.131   0.300   0.302   0.303   0.303
 1982 278   114   498   200     27     42    387     0     0   200    0.00   0.0   0.0   0.00   0.101   0.165   0.167   0.121   0.139   0.130   0.300   0.302   0.303   0.303
 1982 279   115   497   199     27     42    387     0     0   200    0.00   0.0   0.0   0.00   0.096   0.165   0.166   0.121   0.138   0.129   0.300   0.302   0.303   0.303
 1982 280   116   497   199     27     42    387     0     0   200    0.00   0.0   0.0   0.00   0.092   0.164   0.166   0.121   0.137   0.128   0.300   0.302   0.303   0.303
 1982 281   117   525   227     32     42    421     0     0   200    0.00   0.0   0.0   4.48   0.324   0.290   0.260   0.121   0.136   0.128   0.300   0.302   0.303   0.303
 1982 282   118   520   222     32     42    421     0     0   200    0.00   0.0   0.0   0.00   0.259   0.249   0.237   0.145   0.135   0.127   0.300   0.302   0.303   0.303
 1982 283   119   514   216     32     42    421     0     0   200    0.00   0.0   0.0   0.00   0.218   0.226   0.215   0.144   0.135   0.127   0.299   0.302   0.303   0.303
 1982 284   120   509   211     32     42    421     0     0   200    0.00   0.0   0.0   0.00   0.189   0.200   0.204   0.142   0.135   0.127   0.299   0.302   0.303   0.303
 1982 285   121   505   207     32     42    421     0     0   200    0.00   0.0   0.0   0.00   0.171   0.186   0.185   0.136   0.134   0.126   0.299   0.302   0.303   0.303
 1982 286   122   518   220     32     42    438     0     0   200    0.00   0.0   0.0   0.16   0.320   0.256   0.181   0.132   0.133   0.125   0.299   0.302   0.303   0.303
 1982 287   123   513   215     32     42    438     0     0   200    0.00   0.0   0.0   0.00   0.252   0.232   0.207   0.131   0.133   0.125   0.299   0.301   0.302   0.303
 1982 288   124   508   210     32     42    438     0     0   200    0.00   0.0   0.0   0.00   0.213   0.210   0.203   0.131   0.133   0.125   0.299   0.301   0.302   0.303
 1982 289   125   504   206     32     42    438     0     0   200    0.00   0.0   0.0   0.00   0.178   0.193   0.193   0.129   0.132   0.124   0.299   0.301   0.302   0.303
 1982 290   126   502   204     32     42    438     0     0   200    0.00   0.0   0.0   0.00   0.166   0.184   0.185   0.127   0.132   0.124   0.299   0.301   0.302   0.303
 1982 291   127   500   202     32     42    438     0     0   200    0.00   0.0   0.0   0.00   0.155   0.179   0.181   0.126   0.131   0.123   0.299   0.301   0.302   0.303
 1982 292   128   499   201     32     42    438     0     0   200    0.00   0.0   0.0   0.00   0.146   0.176   0.177   0.124   0.130   0.123   0.299   0.301   0.302   0.303
 1982 293   129   497   199     32     42    438     0     0   200    0.00   0.0   0.0   0.00   0.137   0.173   0.175   0.123   0.130   0.122   0.299   0.301   0.302   0.303
 1982 294   130   496   198     32     42    438     0     0   200    0.00   0.0   0.0   0.00   0.129   0.171   0.173   0.122   0.129   0.122   0.299   0.301   0.302   0.303
 1982 295   131   495   197     32     42    438     0     0   200    0.00   0.0   0.0   0.00   0.122   0.169   0.171   0.121   0.129   0.121   0.299   0.301   0.302   0.303
 1982 296   132   495   197     32     42    438     0     0   200    0.00   0.0   0.0   0.00   0.115   0.167   0.169   0.121   0.128   0.121   0.299   0.301   0.302   0.303
 1982 297   133   494   196     32     42    438     0     0   200    0.00   0.0   0.0   0.00   0.109   0.166   0.168   0.121   0.128   0.121   0.298   0.301   0.302   0.302
 1982 298   134   494   195     32     42    438     0     0   200    0.00   0.0   0.0   0.00   0.104   0.165   0.167   0.121   0.127   0.121   0.298   0.301   0.302   0.302
 1982 299   135   493   195     32     42    438     0     0   200    0.00   0.0   0.0   0.00   0.099   0.165   0.166   0.121   0.127   0.121   0.298   0.301   0.302   0.302
 1982 300   136   493   195     32     42    438     0     0   200    0.00   0.0   0.0   0.00   0.095   0.164   0.166   0.121   0.126   0.121   0.298   0.301   0.302   0.302
 1982 301   137   492   194     32     42    438     0     0   200    0.00   0.0   0.0   0.00   0.090   0.163   0.166   0.121   0.126   0.121   0.298   0.301   0.302   0.302
 1982 302   138   492   194     32     42    438     0     0   200    0.00   0.0   0.0   0.00   0.087   0.163   0.165   0.121   0.125   0.121   0.298   0.301   0.302   0.302
 1982 303   139   492   194     32     42    438     0     0   200    0.00   0.0   0.0   0.00   0.083   0.162   0.165   0.120   0.125   0.121   0.298   0.301   0.302   0.302
 1982 304   140   491   193     32     42    438     0     0   200    0.00   0.0   0.0   0.00   0.080   0.161   0.165   0.120   0.125   0.121   0.298   0.301   0.302   0.302
 1982 305   141   491   193     32     42    438     0     0   200    0.00   0.0   0.0   0.00   0.078   0.161   0.165   0.120   0.124   0.121   0.298   0.301   0.302   0.302

*DSSAT Cropping System Model Ver. 4.7.5.008 -release  JAN 07, 2021 20:14:37

*RUN   3        : ERiMA DCC1                MZCER047 ETMZmelk    1
 MODEL          : MZCER047 - Maize
 EXPERIMENT     : ETMZmelk SN MELKSSAL
 DATA PATH      : C:\IRI\Python_Dash\ET_DSS_hist\TEST\
 TREATMENT  1   : ERiMA DCC1                MZCER047
  
!                                                                                                 Soil water content (mm3/mm3) by soil depth (cm):
!                                                                                                 0-5    5-15   15-20   20-35   35-50   50-65   65-81   81-97  97-118 118-200
@YEAR DOY   DAS  SWTD  SWXD   ROFC   DRNC   PREC  IR#C  IRRC  DTWT    MWTD  TDFD  TDFC   ROFD    SW1D    SW2D    SW3D    SW4D    SW5D    SW6D    SW7D    SW8D    SW9D    SW10
 1983 164     0   586   288      0      0      0     0     0     0    0.00   0.0   0.0   0.00   0.231   0.231   0.231   0.221   0.316   0.316   0.304   0.304   0.305   0.305
 1983 165     1   585   287      0      0      0     0     0   100    0.00   0.0   0.0   0.00   0.215   0.230   0.231   0.221   0.316   0.316   0.304   0.304   0.305   0.305
 1983 166     2   584   286      0      0      0     0     0   200    0.00   0.0   0.0   0.00   0.200   0.229   0.230   0.221   0.316   0.316   0.304   0.304   0.305   0.305
 1983 167     3   583   285      0      0      0     0     0   200    0.00   0.0   0.0   0.00   0.186   0.228   0.230   0.221   0.316   0.316   0.304   0.304   0.305   0.305
 1983 168     4   585   287      0      0      2     0     0   200    0.00   0.0   0.0   0.00   0.219   0.227   0.230   0.220   0.316   0.316   0.304   0.304   0.305   0.305
 1983 169     5   586   288      0      0      9     0     0   200    0.00   0.0   0.0   0.00   0.284   0.246   0.225   0.217   0.312   0.313   0.302   0.302   0.303   0.303
 1983 170     6   582   284      0      0      9     0     0   200    0.00   0.0   0.0   0.00   0.253   0.247   0.222   0.215   0.309   0.311   0.300   0.300   0.302   0.302
 1983 171     7   581   282      0      0      9     0     0   200    0.00   0.0   0.0   0.00   0.234   0.246   0.222   0.215   0.309   0.311   0.300   0.300   0.302   0.302
 1983 172     8   580   281      0      0      9     0     0   200    0.00   0.0   0.0   0.00   0.217   0.245   0.221   0.214   0.309   0.310   0.300   0.300   0.302   0.302
 1983 173     9   579   280      0      0      9     0     0   200    0.00   0.0   0.0   0.00   0.202   0.243   0.221   0.214   0.309   0.310   0.300   0.300   0.302   0.302
 1983 174    10   578   280      0      0      9     0     0   200    0.00   0.0   0.0   0.00   0.188   0.242   0.221   0.214   0.309   0.310   0.300   0.300   0.302   0.302
 1983 175    11   577   279      0      0      9     0     0   200    0.00   0.0   0.0   0.00   0.176   0.240   0.220   0.214   0.309   0.310   0.300   0.300   0.302   0.302
 1983 176    12   576   278      0      0      9     0     0   200    0.00   0.0   0.0   0.00   0.164   0.239   0.220   0.214   0.309   0.310   0.300   0.300   0.302   0.302
 1983 177    13   575   277      0      0      9     0     0   200    0.00   0.0   0.0   0.00   0.154   0.237   0.220   0.214   0.309   0.310   0.300   0.300   0.302   0.302
 1983 178    14   587   289      0      0     23     0     0   200    0.00   0.0   0.0   0.03   0.317   0.266   0.244   0.214   0.308   0.310   0.299   0.300   0.302   0.302
 1983 179    15   583   285      0      0     23     0     0   200    0.00   0.0   0.0   0.00   0.267   0.256   0.256   0.220   0.306   0.308   0.298   0.299   0.301   0.301
 1983 180    16   579   280      0      0     23     0     0   200    0.00   0.0   0.0   0.00   0.244   0.251   0.252   0.217   0.303   0.306   0.296   0.297   0.299   0.300
 1983 181    17   588   290      1      0     38     0     0   200    0.00   0.0   0.0   0.55   0.318   0.288   0.296   0.235   0.300   0.303   0.294   0.295   0.298   0.299
 1983 182    18   583   284      1      0     38     0     0   200    0.00   0.0   0.0   0.00   0.260   0.262   0.268   0.261   0.298   0.301   0.292   0.294   0.296   0.297
 1983 183    19   576   278      1      0     38     0     0   200    0.00   0.0   0.0   0.00   0.236   0.251   0.256   0.258   0.295   0.298   0.290   0.292   0.294   0.296
 1983 184    20   575   276      1      0     38     0     0   200    0.00   0.0   0.0   0.00   0.214   0.246   0.254   0.258   0.295   0.298   0.290   0.292   0.294   0.296
 1983 185    21   573   275      1      0     38     0     0   200    0.00   0.0   0.0   0.00   0.198   0.240   0.250   0.257   0.294   0.298   0.290   0.292   0.294   0.296
 1983 186    22   571   273      1      0     38     0     0   200    0.00   0.0   0.0   0.00   0.184   0.232   0.245   0.256   0.294   0.298   0.290   0.292   0.294   0.296
 1983 187    23   569   271      1      0     38     0     0   200    0.00   0.0   0.0   0.00   0.172   0.224   0.239   0.255   0.294   0.298   0.290   0.292   0.294   0.296
 1983 188    24   574   276      1      0     45     0     0   200    0.00   0.0   0.0   0.00   0.269   0.232   0.231   0.253   0.294   0.298   0.290   0.292   0.294   0.296
 1983 189    25   568   270      1      0     45     0     0   200    0.00   0.0   0.0   0.00   0.241   0.223   0.222   0.248   0.292   0.296   0.288   0.290   0.293   0.295
 1983 190    26   565   267      1      0     45     0     0   200    0.00   0.0   0.0   0.00   0.213   0.216   0.218   0.246   0.292   0.296   0.288   0.290   0.293   0.295
 1983 191    27   571   272      1      0     56     0     0   200    0.00   0.0   0.0   0.00   0.317   0.250   0.209   0.239   0.289   0.294   0.286   0.289   0.292   0.294
 1983 192    28   565   267      1      0     56     0     0   200    0.00   0.0   0.0   0.00   0.260   0.245   0.220   0.234   0.287   0.292   0.285   0.288   0.291   0.293
 1983 193    29   562   264      1      0     56     0     0   200    0.00   0.0   0.0   0.00   0.229   0.233   0.215   0.231   0.287   0.292   0.285   0.288   0.291   0.293
 1983 194    30   559   260      1      0     56     0     0   200    0.00   0.0   0.0   0.00   0.202   0.220   0.212   0.228   0.287   0.292   0.285   0.288   0.291   0.293
 1983 195    31   555   257      1      0     56     0     0   200    0.00   0.0   0.0   0.00   0.185   0.208   0.208   0.222   0.287   0.292   0.285   0.288   0.291   0.293
 1983 196    32   558   260      1      0     63     0     0   200    0.00   0.0   0.0   0.00   0.268   0.215   0.202   0.212   0.287   0.292   0.285   0.288   0.291   0.293
 1983 197    33   555   257      1      0     64     0     0   200    0.00   0.0   0.0   0.00   0.249   0.215   0.199   0.206   0.286   0.291   0.284   0.287   0.290   0.292
 1983 198    34   553   255      1      0     65     0     0   200    0.00   0.0   0.0   0.00   0.230   0.212   0.197   0.201   0.286   0.291   0.284   0.287   0.290   0.292
 1983 199    35   553   255      1      0     68     0     0   200    0.00   0.0   0.0   0.00   0.237   0.215   0.196   0.196   0.285   0.291   0.284   0.287   0.290   0.292
 1983 200    36   550   252      1      0     70     0     0   200    0.00   0.0   0.0   0.00   0.217   0.206   0.194   0.190   0.285   0.291   0.284   0.287   0.290   0.292
 1983 201    37   547   249      1      0     71     0     0   200    0.00   0.0   0.0   0.00   0.203   0.198   0.192   0.180   0.285   0.291   0.284   0.287   0.290   0.292
 1983 202    38   553   255      1      0     82     0     0   200    0.00   0.0   0.0   0.00   0.321   0.235   0.189   0.166   0.284   0.290   0.284   0.286   0.290   0.292
 1983 203    39   555   257      1      0     88     0     0   200    0.00   0.0   0.0   0.00   0.317   0.252   0.220   0.164   0.283   0.290   0.283   0.286   0.290   0.291
 1983 204    40   562   264      1      0     98     0     0   200    0.00   0.0   0.0   0.14   0.318   0.275   0.277   0.174   0.282   0.289   0.283   0.286   0.289   0.291
 1983 205    41   558   259      1      0     98     0     0   200    0.00   0.0   0.0   0.00   0.265   0.251   0.255   0.192   0.282   0.289   0.282   0.285   0.289   0.291
 1983 206    42   579   281      7      0    130     0     0   200    0.00   0.0   0.0   6.24   0.322   0.314   0.317   0.255   0.281   0.288   0.282   0.285   0.289   0.291
 1983 207    43   589   291      9      0    147     0     0   200    0.00   0.0   0.0   1.81   0.320   0.312   0.314   0.288   0.319   0.293   0.282   0.285   0.288   0.290
 1983 208    44   599   301     10      0    162     0     0   200    0.00   0.0   0.0   1.21   0.324   0.315   0.317   0.296   0.339   0.321   0.288   0.284   0.288   0.290
 1983 209    45   595   297     10      0    162     0     0   200    0.00   0.0   0.0   0.00   0.270   0.268   0.269   0.272   0.324   0.317   0.304   0.304   0.305   0.305
 1983 210    46   591   293     10      0    162     0     0   200    0.00   0.0   0.0   0.00   0.247   0.248   0.250   0.261   0.318   0.317   0.304   0.304   0.305   0.305
 1983 211    47   586   288     10      0    162     0     0   200    0.00   0.0   0.0   0.00   0.231   0.233   0.236   0.255   0.317   0.316   0.303   0.304   0.305   0.305
 1983 212    48   583   285     10      0    162     0     0   200    0.00   0.0   0.0   0.00   0.219   0.222   0.226   0.251   0.316   0.316   0.303   0.303   0.304   0.305
 1983 213    49   580   282     10      0    163     0     0   200    0.00   0.0   0.0   0.00   0.219   0.210   0.211   0.243   0.315   0.316   0.303   0.303   0.304   0.305
 1983 214    50   575   276     10      0    163     0     0   200    0.00   0.0   0.0   0.00   0.191   0.201   0.202   0.230   0.312   0.315   0.303   0.303   0.304   0.305
 1983 215    51   571   273     10      0    164     0     0   200    0.00   0.0   0.0   0.00   0.203   0.195   0.196   0.212   0.309   0.314   0.303   0.303   0.304   0.304
 1983 216    52   569   270     10      0    166     0     0   200    0.00   0.0   0.0   0.00   0.231   0.191   0.193   0.195   0.305   0.312   0.303   0.303   0.304   0.304
 1983 217    53   565   267     10      0    168     0     0   200    0.00   0.0   0.0   0.00   0.222   0.192   0.191   0.181   0.303   0.311   0.303   0.303   0.304   0.304
 1983 218    54   561   263     10      0    168     0     0   200    0.00   0.0   0.0   0.00   0.191   0.190   0.189   0.167   0.300   0.310   0.303   0.303   0.304   0.304
 1983 219    55   561   263     10      0    173     0     0   200    0.00   0.0   0.0   0.00   0.260   0.192   0.185   0.154   0.292   0.307   0.303   0.303   0.304   0.304
 1983 220    56   567   268     10      0    182     0     0   200    0.00   0.0   0.0   0.00   0.303   0.243   0.184   0.152   0.289   0.304   0.303   0.303   0.304   0.304
 1983 221    57   561   263     10      0    182     0     0   200    0.00   0.0   0.0   0.00   0.250   0.230   0.183   0.151   0.286   0.302   0.303   0.303   0.304   0.304
 1983 222    58   571   273     10      0    196     0     0   200    0.00   0.0   0.0   0.26   0.317   0.264   0.256   0.150   0.283   0.300   0.303   0.303   0.304   0.304
 1983 223    59   581   283     11      0    210     0     0   200    0.00   0.0   0.0   0.68   0.327   0.298   0.307   0.179   0.281   0.299   0.303   0.303   0.304   0.304
 1983 224    60   578   280     11      0    210     0     0   200    0.00   0.0   0.0   0.00   0.277   0.266   0.270   0.213   0.279   0.297   0.303   0.303   0.304   0.304
 1983 225    61   575   277     11      0    210     0     0   200    0.00   0.0   0.0   0.00   0.257   0.253   0.255   0.216   0.278   0.296   0.302   0.303   0.304   0.304
 1983 226    62   573   274     11      0    210     0     0   200    0.00   0.0   0.0   0.00   0.246   0.245   0.248   0.213   0.277   0.295   0.302   0.303   0.304   0.304
 1983 227    63   580   282     11      0    219     0     0   200    0.00   0.0   0.0   0.00   0.328   0.267   0.264   0.216   0.276   0.294   0.302   0.303   0.304   0.304
 1983 228    64   577   278     11      0    219     0     0   200    0.00   0.0   0.0   0.00   0.277   0.253   0.252   0.229   0.274   0.292   0.302   0.303   0.304   0.304
 1983 229    65   595   297     15      0    245     0     0   200    0.00   0.0   0.0   3.98   0.329   0.319   0.320   0.266   0.282   0.291   0.302   0.302   0.304   0.304
 1983 230    66   601   302     15      0    253     0     0   200    0.00   0.0   0.0   0.16   0.328   0.305   0.319   0.281   0.312   0.289   0.302   0.302   0.304   0.304
 1983 231    67   596   298     15      0    253     0     0   200    0.00   0.0   0.0   0.00   0.274   0.266   0.272   0.266   0.314   0.314   0.304   0.304   0.305   0.305
 1983 232    68   600   302     15      0    262     0     0   200    0.00   0.0   0.0   0.00   0.325   0.270   0.280   0.265   0.317   0.316   0.304   0.304   0.305   0.305
 1983 233    69   601   303     15      0    266     0     0   200    0.00   0.0   0.0   0.00   0.313   0.270   0.281   0.266   0.318   0.316   0.305   0.306   0.305   0.305
 1983 234    70   602   304     15      0    270     0     0   200    0.00   0.0   0.0   0.00   0.314   0.269   0.281   0.266   0.319   0.317   0.306   0.306   0.307   0.305
 1983 235    71   607   309     15      0    280     0     0   200    0.00   0.0   0.0   0.08   0.327   0.285   0.301   0.270   0.322   0.319   0.308   0.307   0.307   0.308
 1983 236    72   609   311     15      0    283     0     0   200    0.00   0.0   0.0   0.00   0.315   0.280   0.301   0.274   0.324   0.322   0.309   0.308   0.308   0.308
 1983 237    73   608   310     15      0    285     0     0   200    0.00   0.0   0.0   0.00   0.295   0.269   0.289   0.271   0.324   0.322   0.311   0.310   0.309   0.308
 1983 238    74   616   318     16      0    298     0     0   200    0.00   0.0   0.0   0.45   0.326   0.293   0.314   0.274   0.327   0.323   0.312   0.311   0.310   0.309
 1983 239    75   602   303     16     10    298     0     0   200    0.00   0.0   0.0   0.00   0.272   0.259   0.268   0.262   0.317   0.315   0.307   0.307   0.307   0.306
 1983 240    76   596   298     16     10    298     0     0   200    0.00   0.0   0.0   0.00   0.250   0.247   0.250   0.258   0.315   0.313   0.305   0.307   0.307   0.306
 1983 241    77   614   316     19     10    324     0     0   199    0.00   0.0   0.0   3.49   0.326   0.313   0.317   0.271   0.321   0.316   0.306   0.306   0.307   0.306
 1983 242    78   619   321     19     11    334     0     0   200    0.00   0.0   0.0   0.27   0.328   0.307   0.319   0.283   0.330   0.323   0.310   0.309   0.308   0.307
 1983 243    79   625   327     20     12    344     0     0   199    0.00   0.0   0.0   0.33   0.330   0.308   0.320   0.289   0.337   0.330   0.316   0.313   0.310   0.309
 1983 244    80   627   329     20     13    352     0     0   199    0.00   0.0   0.0   0.06   0.326   0.296   0.317   0.286   0.339   0.334   0.320   0.317   0.313   0.311
 1983 245    81   606   308     20     30    352     0     0   199    0.00   0.0   0.0   0.00   0.273   0.262   0.271   0.267   0.323   0.320   0.310   0.309   0.308   0.307
 1983 246    82   598   300     20     33    352     0     0   199    0.00   0.0   0.0   0.00   0.250   0.248   0.251   0.259   0.316   0.314   0.306   0.306   0.306   0.307
 1983 247    83   600   302     20     33    360     0     0   199    0.00   0.0   0.0   0.00   0.312   0.257   0.256   0.256   0.313   0.310   0.306   0.306   0.306   0.307
 1983 248    84   604   305     20     33    368     0     0   199    0.00   0.0   0.0   0.00   0.326   0.273   0.276   0.259   0.314   0.307   0.306   0.306   0.306   0.307
 1983 249    85   599   300     20     34    368     0     0   199    0.00   0.0   0.0   0.00   0.275   0.254   0.256   0.257   0.313   0.313   0.306   0.305   0.306   0.307
 1983 250    86   604   306     20     34    378     0     0   199    0.00   0.0   0.0   0.06   0.326   0.274   0.278   0.258   0.315   0.309   0.306   0.305   0.306   0.307
 1983 251    87   609   311     20     34    389     0     0   199    0.00   0.0   0.0   0.22   0.326   0.291   0.307   0.264   0.318   0.314   0.306   0.305   0.305   0.307
 1983 252    88   600   302     20     39    389     0     0   199    0.00   0.0   0.0   0.00   0.275   0.262   0.269   0.256   0.316   0.313   0.305   0.305   0.305   0.307
 1983 253    89   606   308     20     39    399     0     0   199    0.00   0.0   0.0   0.07   0.329   0.280   0.290   0.261   0.316   0.314   0.305   0.305   0.305   0.306
 1983 254    90   612   314     20     39    409     0     0   199    0.00   0.0   0.0   0.22   0.329   0.297   0.318   0.268   0.321   0.317   0.307   0.306   0.307   0.306
 1983 255    91   617   319     21     40    420     0     0   200    0.00   0.0   0.0   0.27   0.329   0.303   0.319   0.277   0.328   0.322   0.310   0.308   0.308   0.307
 1983 256    92   602   304     21     50    420     0     0   200    0.00   0.0   0.0   0.00   0.275   0.266   0.273   0.259   0.318   0.315   0.306   0.306   0.308   0.307
 1983 257    93   597   299     21     50    420     0     0   200    0.00   0.0   0.0   0.00   0.255   0.252   0.255   0.254   0.315   0.313   0.306   0.305   0.308   0.307
 1983 258    94   594   296     21     50    420     0     0   200    0.00   0.0   0.0   0.00   0.247   0.245   0.248   0.247   0.313   0.310   0.306   0.305   0.308   0.307
 1983 259    95   592   294     21     50    422     0     0   200    0.00   0.0   0.0   0.00   0.268   0.247   0.239   0.238   0.311   0.307   0.306   0.305   0.307   0.307
 1983 260    96   590   292     21     50    424     0     0   200    0.00   0.0   0.0   0.00   0.273   0.251   0.230   0.230   0.308   0.304   0.306   0.305   0.307   0.307
 1983 261    97   587   289     21     50    424     0     0   200    0.00   0.0   0.0   0.00   0.257   0.248   0.223   0.223   0.306   0.302   0.306   0.305   0.307   0.307
 1983 262    98   590   292     21     50    431     0     0   200    0.00   0.0   0.0   0.00   0.309   0.260   0.244   0.214   0.303   0.299   0.305   0.305   0.307   0.306
 1983 263    99   588   290     21     50    433     0     0   200    0.00   0.0   0.0   0.00   0.296   0.262   0.258   0.209   0.301   0.296   0.305   0.305   0.307   0.306
 1983 264   100   591   293     21     50    441     0     0   200    0.00   0.0   0.0   0.00   0.330   0.272   0.276   0.213   0.298   0.293   0.305   0.305   0.307   0.306
 1983 265   101   586   288     21     50    441     0     0   200    0.00   0.0   0.0   0.00   0.276   0.254   0.256   0.225   0.295   0.289   0.305   0.304   0.307   0.306
 1983 266   102   589   291     21     50    448     0     0   200    0.00   0.0   0.0   0.00   0.323   0.265   0.266   0.223   0.292   0.285   0.305   0.304   0.307   0.306
 1983 267   103   584   286     21     50    448     0     0   200    0.00   0.0   0.0   0.00   0.274   0.252   0.253   0.230   0.289   0.282   0.305   0.304   0.307   0.306
 1983 268   104   580   282     21     50    448     0     0   200    0.00   0.0   0.0   0.00   0.255   0.247   0.244   0.220   0.285   0.278   0.304   0.304   0.306   0.306
 1983 269   105   575   277     21     50    448     0     0   200    0.00   0.0   0.0   0.00   0.245   0.238   0.234   0.211   0.282   0.274   0.304   0.304   0.306   0.306
 1983 270   106   571   273     21     50    448     0     0   200    0.00   0.0   0.0   0.00   0.234   0.228   0.225   0.202   0.279   0.271   0.304   0.304   0.306   0.306
 1983 271   107   567   269     21     50    448     0     0   200    0.00   0.0   0.0   0.00   0.225   0.220   0.218   0.194   0.276   0.268   0.304   0.303   0.306   0.305
 1983 272   108   563   264     21     50    448     0     0   200    0.00   0.0   0.0   0.00   0.209   0.214   0.213   0.183   0.273   0.263   0.304   0.303   0.306   0.305
 1983 273   109   558   260     21     50    448     0     0   200    0.00   0.0   0.0   0.00   0.199   0.209   0.209   0.172   0.269   0.259   0.304   0.303   0.306   0.305
 1983 274   110   554   255     21     50    448     0     0   200    0.00   0.0   0.0   0.00   0.189   0.205   0.205   0.159   0.263   0.252   0.304   0.303   0.306   0.305
 1983 275   111   549   251     21     50    448     0     0   200    0.00   0.0   0.0   0.00   0.181   0.201   0.201   0.154   0.255   0.243   0.304   0.303   0.306   0.305
 1983 276   112   545   247     21     50    448     0     0   200    0.00   0.0   0.0   0.00   0.172   0.197   0.198   0.150   0.246   0.233   0.304   0.303   0.306   0.305
 1983 277   113   544   246     21     50    451     0     0   200    0.00   0.0   0.0   0.00   0.234   0.194   0.195   0.147   0.237   0.222   0.304   0.303   0.306   0.305
 1983 278   114   542   244     21     50    454     0     0   200    0.00   0.0   0.0   0.00   0.242   0.199   0.194   0.146   0.229   0.213   0.304   0.303   0.306   0.305
 1983 279   115   538   240     21     50    454     0     0   200    0.00   0.0   0.0   0.00   0.216   0.197   0.192   0.144   0.223   0.206   0.304   0.303   0.306   0.305
 1983 280   116   534   236     21     50    454     0     0   200    0.00   0.0   0.0   0.00   0.197   0.194   0.191   0.143   0.214   0.196   0.304   0.303   0.306   0.305
 1983 281   117   530   232     21     50    454     0     0   200    0.00   0.0   0.0   0.00   0.187   0.192   0.189   0.141   0.206   0.186   0.304   0.303   0.306   0.305
 1983 282   118   525   227     21     50    454     0     0   200    0.00   0.0   0.0   0.00   0.175   0.190   0.188   0.140   0.194   0.173   0.304   0.303   0.306   0.305
 1983 283   119   521   223     21     50    454     0     0   200    0.00   0.0   0.0   0.00   0.165   0.187   0.186   0.139   0.182   0.163   0.304   0.303   0.306   0.305
 1983 284   120   516   218     21     50    454     0     0   200    0.00   0.0   0.0   0.00   0.154   0.185   0.184   0.137   0.165   0.157   0.304   0.303   0.306   0.305
 1983 285   121   512   213     21     50    454     0     0   200    0.00   0.0   0.0   0.00   0.145   0.181   0.181   0.134   0.152   0.150   0.304   0.303   0.306   0.305
 1983 286   122   509   211     21     50    454     0     0   200    0.00   0.0   0.0   0.00   0.136   0.177   0.178   0.131   0.147   0.145   0.304   0.303   0.306   0.305
 1983 287   123   507   208     21     50    454     0     0   200    0.00   0.0   0.0   0.00   0.128   0.174   0.175   0.128   0.143   0.142   0.303   0.303   0.306   0.305
 1983 288   124   505   207     21     50    454     0     0   200    0.00   0.0   0.0   0.00   0.121   0.172   0.173   0.126   0.141   0.139   0.303   0.303   0.306   0.305
 1983 289   125   507   209     21     50    458     0     0   200    0.00   0.0   0.0   0.00   0.191   0.169   0.171   0.125   0.139   0.137   0.303   0.303   0.306   0.305
 1983 290   126   508   210     21     50    460     0     0   200    0.00   0.0   0.0   0.00   0.220   0.168   0.169   0.123   0.137   0.136   0.303   0.303   0.306   0.305
 1983 291   127   507   209     21     50    462     0     0   200    0.00   0.0   0.0   0.00   0.212   0.167   0.169   0.123   0.136   0.135   0.303   0.303   0.306   0.305
 1983 292   128   504   206     21     50    462     0     0   200    0.00   0.0   0.0   0.00   0.166   0.166   0.167   0.122   0.135   0.134   0.303   0.303   0.306   0.305
 1983 293   129   503   204     21     50    462     0     0   200    0.00   0.0   0.0   0.00   0.155   0.165   0.166   0.121   0.134   0.132   0.303   0.303   0.306   0.305
 1983 294   130   502   204     21     50    462     0     0   200    0.00   0.0   0.0   0.00   0.146   0.165   0.166   0.121   0.133   0.131   0.303   0.303   0.306   0.305
 1983 295   131   501   203     21     50    462     0     0   200    0.00   0.0   0.0   0.00   0.137   0.164   0.166   0.121   0.132   0.130   0.303   0.303   0.306   0.305
 1983 296   132   500   202     21     50    462     0     0   200    0.00   0.0   0.0   0.00   0.129   0.163   0.165   0.121   0.131   0.130   0.303   0.303   0.306   0.305
 1983 297   133   499   201     21     50    462     0     0   200    0.00   0.0   0.0   0.00   0.122   0.163   0.165   0.121   0.130   0.129   0.303   0.303   0.306   0.305
 1983 298   134   499   201     21     50    462     0     0   200    0.00   0.0   0.0   0.00   0.115   0.162   0.165   0.121   0.129   0.128   0.303   0.303   0.306   0.305
 1983 299   135   498   200     21     50    462     0     0   200    0.00   0.0   0.0   0.00   0.109   0.161   0.165   0.121   0.129   0.127   0.303   0.303   0.306   0.305
 1983 300   136   498   199     21     50    462     0     0   200    0.00   0.0   0.0   0.00   0.104   0.161   0.164   0.121   0.128   0.127   0.303   0.303   0.306   0.305
 1983 301   137   497   199     21     50    462     0     0   200    0.00   0.0   0.0   0.00   0.099   0.160   0.164   0.120   0.127   0.126   0.303   0.303   0.306   0.305
 1983 302   138   496   198     21     50    462     0     0   200    0.00   0.0   0.0   0.00   0.095   0.159   0.164   0.120   0.127   0.125   0.303   0.303   0.306   0.305

*DSSAT Cropping System Model Ver. 4.7.5.008 -release  JAN 07, 2021 20:14:37

*RUN   4        : ERiMA DCC1                MZCER047 ETMZmelk    1
 MODEL          : MZCER047 - Maize
 EXPERIMENT     : ETMZmelk SN MELKSSAL
 DATA PATH      : C:\IRI\Python_Dash\ET_DSS_hist\TEST\
 TREATMENT  1   : ERiMA DCC1                MZCER047
  
!                                                                                                 Soil water content (mm3/mm3) by soil depth (cm):
!                                                                                                 0-5    5-15   15-20   20-35   35-50   50-65   65-81   81-97  97-118 118-200
@YEAR DOY   DAS  SWTD  SWXD   ROFC   DRNC   PREC  IR#C  IRRC  DTWT    MWTD  TDFD  TDFC   ROFD    SW1D    SW2D    SW3D    SW4D    SW5D    SW6D    SW7D    SW8D    SW9D    SW10
 1984 164     0   586   288      0      0      0     0     0     0    0.00   0.0   0.0   0.00   0.231   0.231   0.231   0.221   0.316   0.316   0.304   0.304   0.305   0.305
 1984 165     1   585   287      0      0      0     0     0   100    0.00   0.0   0.0   0.00   0.215   0.230   0.231   0.221   0.316   0.316   0.304   0.304   0.305   0.305
 1984 166     2   584   286      0      0      0     0     0   200    0.00   0.0   0.0   0.00   0.200   0.229   0.230   0.221   0.316   0.316   0.304   0.304   0.305   0.305
 1984 167     3   583   285      0      0      0     0     0   200    0.00   0.0   0.0   0.00   0.186   0.228   0.230   0.221   0.316   0.316   0.304   0.304   0.305   0.305
 1984 168     4   583   284      0      0      0     0     0   200    0.00   0.0   0.0   0.00   0.174   0.227   0.230   0.220   0.316   0.316   0.304   0.304   0.305   0.305
 1984 169     5   582   284      0      0      0     0     0   200    0.00   0.0   0.0   0.00   0.162   0.226   0.229   0.220   0.316   0.316   0.304   0.304   0.305   0.305
 1984 170     6   581   283      0      0      0     0     0   200    0.00   0.0   0.0   0.00   0.152   0.225   0.229   0.220   0.315   0.316   0.304   0.304   0.305   0.305
 1984 171     7   580   282      0      0      0     0     0   200    0.00   0.0   0.0   0.00   0.143   0.224   0.229   0.220   0.315   0.316   0.304   0.304   0.305   0.305
 1984 172     8   580   282      0      0      0     0     0   200    0.00   0.0   0.0   0.00   0.134   0.223   0.228   0.220   0.315   0.316   0.304   0.304   0.305   0.305
 1984 173     9   581   283      0      0      2     0     0   200    0.00   0.0   0.0   0.00   0.163   0.222   0.228   0.220   0.315   0.316   0.304   0.304   0.305   0.305
 1984 174    10   580   282      0      0      2     0     0   200    0.00   0.0   0.0   0.00   0.153   0.221   0.228   0.220   0.315   0.315   0.304   0.304   0.305   0.305
 1984 175    11   584   286      0      0      6     0     0   200    0.00   0.0   0.0   0.00   0.221   0.219   0.227   0.219   0.315   0.315   0.304   0.304   0.305   0.305
 1984 176    12   585   286      0      0      8     0     0   200    0.00   0.0   0.0   0.00   0.243   0.218   0.227   0.219   0.315   0.315   0.304   0.304   0.305   0.305
 1984 177    13   583   285      0      0      8     0     0   200    0.00   0.0   0.0   0.00   0.225   0.217   0.227   0.219   0.315   0.315   0.304   0.304   0.305   0.305
 1984 178    14   594   296      0      0     24     0     0   200    0.00   0.0   0.0   0.48   0.319   0.277   0.270   0.224   0.312   0.313   0.302   0.302   0.303   0.304
 1984 179    15   589   291      0      0     24     0     0   200    0.00   0.0   0.0   0.00   0.264   0.260   0.260   0.242   0.309   0.310   0.300   0.300   0.302   0.302
 1984 180    16   584   286      0      0     24     0     0   200    0.00   0.0   0.0   0.00   0.243   0.253   0.255   0.239   0.306   0.308   0.298   0.299   0.300   0.301
[...]
 2014 184    20   579   281      5      1     32     0     0   200    0.00   0.0   0.0   0.00   0.125   0.227   0.247   0.255   0.308   0.310   0.299   0.299   0.300   0.301
 2014 185    21   578   280      5      1     32     0     0   200    0.00   0.0   0.0   0.00   0.118   0.223   0.243   0.254   0.308   0.310   0.299   0.299   0.300   0.301
 2014 186    22   577   279      5      1     32     0     0   200    0.00   0.0   0.0   0.00   0.112   0.219   0.239   0.254   0.308   0.310   0.299   0.299   0.300   0.301
 2014 187    23   581   283      5      1     37     0     0   200    0.00   0.0   0.0   0.00   0.207   0.216   0.235   0.253   0.308   0.310   0.299   0.299   0.300   0.301
 2014 188    24   584   286      5      1     42     0     0   200    0.00   0.0   0.0   0.00   0.266   0.227   0.229   0.252   0.308   0.310   0.299   0.299   0.300   0.301
 2014 189    25   585   287      5      1     48     0     0   200    0.00   0.0   0.0   0.00   0.291   0.248   0.222   0.248   0.306   0.308   0.298   0.297   0.299   0.300
 2014 190    26   581   283      5      1     48     0     0   200    0.00   0.0   0.0   0.00   0.259   0.250   0.219   0.245   0.304   0.307   0.297   0.296   0.298   0.299
 2014 191    27   582   284      5      1     53     0     0   200    0.00   0.0   0.0   0.00   0.291   0.257   0.236   0.242   0.302   0.305   0.295   0.295   0.297   0.298
 2014 192    28   578   280      5      1     53     0     0   200    0.00   0.0   0.0   0.00   0.256   0.250   0.243   0.239   0.300   0.303   0.294   0.294   0.296   0.297
 2014 193    29   575   277      5      1     53     0     0   200    0.00   0.0   0.0   0.00   0.231   0.242   0.237   0.237   0.300   0.303   0.294   0.294   0.296   0.297
 2014 194    30   573   275      5      1     53     0     0   200    0.00   0.0   0.0   0.00   0.209   0.234   0.231   0.235   0.300   0.303   0.294   0.294   0.296   0.297
 2014 195    31   590   292      7      1     76     0     0   200    0.00   0.0   0.0   2.17   0.330   0.298   0.299   0.255   0.299   0.302   0.293   0.293   0.296   0.297
 2014 196    32   587   289      7      1     76     0     0   200    0.00   0.0   0.0   0.00   0.275   0.266   0.268   0.261   0.315   0.312   0.292   0.292   0.295   0.296
 2014 197    33   589   291      7      1     82     0     0   200    0.00   0.0   0.0   0.00   0.304   0.266   0.275   0.264   0.316   0.313   0.291   0.292   0.294   0.296
 2014 198    34   585   287      7      1     82     0     0   200    0.00   0.0   0.0   0.00   0.262   0.251   0.257   0.260   0.315   0.315   0.301   0.291   0.294   0.295
 2014 199    35   581   283      7      1     82     0     0   200    0.00   0.0   0.0   0.00   0.247   0.240   0.248   0.256   0.314   0.314   0.300   0.290   0.293   0.295
 2014 200    36   582   284      7      1     88     0     0   200    0.00   0.0   0.0   0.00   0.292   0.252   0.248   0.252   0.312   0.313   0.299   0.290   0.293   0.294
 2014 201    37   584   286      7      1     94     0     0   200    0.00   0.0   0.0   0.00   0.311   0.260   0.260   0.253   0.311   0.312   0.299   0.289   0.292   0.294
 2014 202    38   605   307     14      1    126     0     0   200    0.00   0.0   0.0   7.17   0.322   0.316   0.318   0.290   0.331   0.323   0.306   0.292   0.292   0.293
 2014 203    39   600   302     14      1    126     0     0   200    0.00   0.0   0.0   0.00   0.269   0.269   0.272   0.269   0.321   0.318   0.305   0.303   0.305   0.305
 2014 204    40   597   299     14      1    126     0     0   200    0.00   0.0   0.0   0.00   0.252   0.253   0.256   0.262   0.317   0.318   0.305   0.304   0.305   0.305
 2014 205    41   594   295     14      1    126     0     0   200    0.00   0.0   0.0   0.00   0.240   0.242   0.246   0.258   0.316   0.317   0.304   0.303   0.304   0.304
 2014 206    42   590   292     14      1    126     0     0   200    0.00   0.0   0.0   0.00   0.229   0.232   0.236   0.254   0.316   0.317   0.304   0.303   0.304   0.304
 2014 207    43   587   289     14      1    126     0     0   200    0.00   0.0   0.0   0.00   0.218   0.221   0.227   0.249   0.315   0.316   0.304   0.303   0.304   0.304
 2014 208    44   583   285     14      1    126     0     0   200    0.00   0.0   0.0   0.00   0.209   0.211   0.212   0.242   0.314   0.316   0.303   0.302   0.303   0.304
 2014 209    45   579   281     14      1    126     0     0   200    0.00   0.0   0.0   0.00   0.189   0.202   0.204   0.229   0.313   0.316   0.303   0.302   0.303   0.304
 2014 210    46   575   277     14      1    126     0     0   200    0.00   0.0   0.0   0.00   0.175   0.197   0.199   0.213   0.312   0.315   0.303   0.302   0.303   0.304
 2014 211    47   571   273     14      1    126     0     0   200    0.00   0.0   0.0   0.00   0.164   0.194   0.196   0.199   0.310   0.315   0.303   0.302   0.303   0.304
 2014 212    48   567   269     14      1    126     0     0   200    0.00   0.0   0.0   0.00   0.154   0.191   0.193   0.182   0.308   0.315   0.303   0.302   0.303   0.304
 2014 213    49   564   266     14      1    126     0     0   200    0.00   0.0   0.0   0.00   0.146   0.188   0.191   0.169   0.305   0.315   0.303   0.302   0.303   0.304
 2014 214    50   560   262     14      1    126     0     0   200    0.00   0.0   0.0   0.00   0.137   0.185   0.188   0.156   0.297   0.314   0.303   0.302   0.303   0.304
 2014 215    51   556   258     14      1    126     0     0   200    0.00   0.0   0.0   0.00   0.129   0.182   0.185   0.150   0.285   0.311   0.303   0.302   0.303   0.304
 2014 216    52   553   255     14      1    126     0     0   200    0.00   0.0   0.0   0.00   0.123   0.180   0.183   0.148   0.273   0.309   0.303   0.302   0.303   0.304
 2014 217    53   549   251     14      1    126     0     0   200    0.00   0.0   0.0   0.00   0.116   0.178   0.181   0.145   0.257   0.305   0.303   0.302   0.303   0.304
 2014 218    54   555   257     14      1    136     0     0   200    0.00   0.0   0.0   0.00   0.278   0.191   0.179   0.144   0.243   0.301   0.303   0.302   0.303   0.304
 2014 219    55   562   264     14      1    146     0     0   200    0.00   0.0   0.0   0.00   0.313   0.259   0.179   0.143   0.236   0.300   0.303   0.302   0.303   0.303
 2014 220    56   558   260     14      1    146     0     0   200    0.00   0.0   0.0   0.00   0.261   0.240   0.207   0.142   0.231   0.298   0.302   0.302   0.303   0.303
 2014 221    57   554   255     14      1    146     0     0   200    0.00   0.0   0.0   0.00   0.240   0.221   0.204   0.142   0.226   0.297   0.302   0.301   0.303   0.303
 2014 222    58   560   262     14      1    156     0     0   200    0.00   0.0   0.0   0.00   0.319   0.254   0.215   0.141   0.222   0.295   0.302   0.301   0.303   0.303
 2014 223    59   566   268     14      1    165     0     0   200    0.00   0.0   0.0   0.07   0.322   0.276   0.275   0.151   0.217   0.294   0.302   0.301   0.303   0.303
 2014 224    60   572   274     14      1    175     0     0   200    0.00   0.0   0.0   0.11   0.326   0.288   0.304   0.177   0.214   0.293   0.302   0.301   0.303   0.303
 2014 225    61   568   270     14      1    175     0     0   200    0.00   0.0   0.0   0.00   0.273   0.260   0.268   0.206   0.211   0.291   0.302   0.301   0.302   0.303
 2014 226    62   564   266     14      1    175     0     0   200    0.00   0.0   0.0   0.00   0.251   0.247   0.252   0.204   0.207   0.289   0.301   0.301   0.302   0.303
 2014 227    63   570   272     14      1    184     0     0   200    0.00   0.0   0.0   0.00   0.329   0.266   0.267   0.208   0.204   0.288   0.301   0.301   0.302   0.303
 2014 228    64   577   279     14      1    195     0     0   200    0.00   0.0   0.0   0.20   0.329   0.292   0.305   0.230   0.201   0.286   0.301   0.301   0.302   0.302
 2014 229    65   574   276     14      1    195     0     0   200    0.00   0.0   0.0   0.00   0.277   0.263   0.269   0.260   0.199   0.285   0.301   0.300   0.302   0.302
 2014 230    66   569   271     14      1    195     0     0   200    0.00   0.0   0.0   0.00   0.253   0.251   0.254   0.259   0.196   0.282   0.301   0.300   0.302   0.302
 2014 231    67   576   278     14      1    205     0     0   200    0.00   0.0   0.0   0.03   0.327   0.270   0.273   0.262   0.195   0.280   0.301   0.300   0.302   0.302
 2014 232    68   572   274     14      1    205     0     0   200    0.00   0.0   0.0   0.00   0.276   0.254   0.257   0.259   0.209   0.278   0.301   0.300   0.302   0.302
 2014 233    69   576   278     14      1    214     0     0   200    0.00   0.0   0.0   0.00   0.326   0.266   0.271   0.261   0.208   0.275   0.301   0.300   0.302   0.302
 2014 234    70   581   283     14      1    222     0     0   200    0.00   0.0   0.0   0.04   0.330   0.285   0.297   0.268   0.216   0.273   0.300   0.300   0.302   0.302
 2014 235    71   586   288     14      1    231     0     0   200    0.00   0.0   0.0   0.07   0.328   0.292   0.316   0.274   0.234   0.270   0.300   0.300   0.301   0.302
 2014 236    72   597   299     16      1    248     0     0   200    0.00   0.0   0.0   1.63   0.326   0.317   0.319   0.290   0.277   0.267   0.300   0.300   0.301   0.302
 2014 237    73   593   294     16      1    248     0     0   200    0.00   0.0   0.0   0.00   0.274   0.272   0.274   0.270   0.311   0.289   0.300   0.300   0.301   0.302
 2014 238    74   589   291     16      1    248     0     0   200    0.00   0.0   0.0   0.00   0.255   0.255   0.258   0.262   0.312   0.295   0.300   0.299   0.301   0.302
 2014 239    75   584   286     16      1    248     0     0   200    0.00   0.0   0.0   0.00   0.236   0.243   0.247   0.257   0.307   0.292   0.300   0.299   0.301   0.302
 2014 240    76   595   297     16      1    263     0     0   200    0.00   0.0   0.0   0.47   0.328   0.282   0.284   0.263   0.308   0.289   0.300   0.299   0.301   0.302
 2014 241    77   591   293     16      1    263     0     0   200    0.00   0.0   0.0   0.00   0.276   0.259   0.261   0.259   0.312   0.304   0.300   0.299   0.301   0.301
 2014 242    78   612   314     23      1    294     0     0   200    0.00   0.0   0.0   6.09   0.327   0.318   0.320   0.287   0.326   0.317   0.305   0.299   0.301   0.301
 2014 243    79   622   324     24      1    309     0     0   200    0.00   0.0   0.0   1.38   0.329   0.319   0.321   0.300   0.340   0.330   0.314   0.308   0.306   0.301
 2014 244    80   605   307     24     14    309     0     0   200    0.00   0.0   0.0   0.00   0.277   0.274   0.276   0.274   0.322   0.319   0.308   0.306   0.306   0.305
 2014 245    81   598   300     24     17    309     0     0   200    0.00   0.0   0.0   0.00   0.257   0.257   0.258   0.264   0.314   0.316   0.305   0.305   0.305   0.305
 2014 246    82   594   295     24     17    309     0     0   200    0.00   0.0   0.0   0.00   0.244   0.245   0.249   0.259   0.310   0.312   0.305   0.305   0.305   0.305
 2014 247    83   589   291     24     17    309     0     0   200    0.00   0.0   0.0   0.00   0.233   0.235   0.240   0.254   0.306   0.308   0.305   0.305   0.305   0.305
 2014 248    84   601   303     25     17    326     0     0   200    0.00   0.0   0.0   0.67   0.327   0.282   0.282   0.261   0.304   0.303   0.305   0.305   0.305   0.305
 2014 249    85   596   298     25     17    326     0     0   200    0.00   0.0   0.0   0.00   0.275   0.258   0.259   0.259   0.311   0.310   0.305   0.305   0.305   0.304
 2014 250    86   592   294     25     17    326     0     0   200    0.00   0.0   0.0   0.00   0.254   0.250   0.251   0.255   0.307   0.305   0.305   0.305   0.305   0.304
 2014 251    87   596   298     25     17    335     0     0   200    0.00   0.0   0.0   0.00   0.326   0.263   0.263   0.256   0.302   0.299   0.304   0.305   0.305   0.304
 2014 252    88   591   293     25     17    335     0     0   200    0.00   0.0   0.0   0.00   0.274   0.250   0.251   0.259   0.304   0.293   0.304   0.304   0.305   0.304
 2014 253    89   595   297     25     17    344     0     0   200    0.00   0.0   0.0   0.00   0.329   0.269   0.269   0.261   0.302   0.288   0.304   0.304   0.304   0.304
 2014 254    90   591   293     25     17    344     0     0   200    0.00   0.0   0.0   0.00   0.277   0.254   0.254   0.259   0.311   0.283   0.304   0.304   0.304   0.304
 2014 255    91   600   302     25     17    356     0     0   200    0.00   0.0   0.0   0.28   0.331   0.287   0.292   0.265   0.314   0.280   0.304   0.304   0.304   0.304
 2014 256    92   607   309     26     17    369     0     0   200    0.00   0.0   0.0   0.63   0.329   0.308   0.320   0.277   0.321   0.289   0.304   0.304   0.304   0.304
 2014 257    93   600   302     26     20    369     0     0   200    0.00   0.0   0.0   0.00   0.278   0.271   0.276   0.264   0.314   0.310   0.304   0.304   0.305   0.305
 2014 258    94   595   297     26     21    369     0     0   200    0.00   0.0   0.0   0.00   0.258   0.256   0.258   0.258   0.311   0.310   0.304   0.304   0.305   0.305
 2014 259    95   591   293     26     21    369     0     0   200    0.00   0.0   0.0   0.00   0.245   0.249   0.252   0.254   0.307   0.305   0.304   0.304   0.305   0.305
 2014 260    96   587   288     26     21    369     0     0   200    0.00   0.0   0.0   0.00   0.228   0.240   0.243   0.248   0.302   0.298   0.304   0.304   0.305   0.305
 2014 261    97   582   283     26     21    369     0     0   200    0.00   0.0   0.0   0.00   0.212   0.232   0.235   0.242   0.296   0.290   0.304   0.304   0.305   0.305
 2014 262    98   578   279     26     21    369     0     0   200    0.00   0.0   0.0   0.00   0.203   0.224   0.228   0.236   0.292   0.284   0.304   0.304   0.305   0.305
 2014 263    99   602   304     32     21    404     0     0   200    0.00   0.0   0.0   6.65   0.337   0.323   0.322   0.262   0.292   0.277   0.304   0.304   0.305   0.305
 2014 264   100   603   305     32     21    410     0     0   200    0.00   0.0   0.0   0.03   0.330   0.302   0.321   0.277   0.312   0.272   0.303   0.303   0.305   0.305
 2014 265   101   598   300     32     21    410     0     0   200    0.00   0.0   0.0   0.00   0.278   0.268   0.276   0.262   0.309   0.308   0.304   0.304   0.305   0.305
 2014 266   102   600   302     32     21    417     0     0   200    0.00   0.0   0.0   0.00   0.319   0.271   0.282   0.263   0.311   0.300   0.304   0.304   0.305   0.305
 2014 267   103   595   297     32     21    417     0     0   200    0.00   0.0   0.0   0.00   0.275   0.257   0.262   0.258   0.310   0.309   0.303   0.303   0.305   0.305
 2014 268   104   598   300     32     21    423     0     0   200    0.00   0.0   0.0   0.00   0.319   0.268   0.272   0.260   0.307   0.303   0.303   0.303   0.304   0.304
 2014 269   105   594   295     32     21    423     0     0   200    0.00   0.0   0.0   0.00   0.275   0.256   0.258   0.259   0.310   0.300   0.303   0.303   0.304   0.304
 2014 270   106   598   300     32     21    432     0     0   200    0.00   0.0   0.0   0.00   0.332   0.272   0.275   0.261   0.308   0.294   0.303   0.303   0.304   0.304
 2014 271   107   593   295     32     21    432     0     0   200    0.00   0.0   0.0   0.00   0.280   0.258   0.259   0.258   0.310   0.299   0.303   0.303   0.304   0.304
 2014 272   108   598   299     32     21    440     0     0   200    0.00   0.0   0.0   0.00   0.332   0.274   0.277   0.261   0.308   0.294   0.302   0.303   0.304   0.304
 2014 273   109   593   295     32     21    440     0     0   200    0.00   0.0   0.0   0.00   0.280   0.258   0.260   0.258   0.310   0.299   0.302   0.302   0.304   0.304
 2014 274   110   588   290     32     21    440     0     0   200    0.00   0.0   0.0   0.00   0.260   0.253   0.253   0.255   0.304   0.293   0.302   0.302   0.303   0.304
 2014 275   111   583   285     32     21    440     0     0   200    0.00   0.0   0.0   0.00   0.241   0.245   0.246   0.248   0.298   0.286   0.302   0.302   0.303   0.304
 2014 276   112   595   297     33     21    457     0     0   200    0.00   0.0   0.0   0.80   0.331   0.292   0.295   0.260   0.294   0.279   0.302   0.302   0.303   0.303
 2014 277   113   606   307     35     21    474     0     0   200    0.00   0.0   0.0   1.66   0.330   0.322   0.322   0.281   0.315   0.281   0.301   0.302   0.303   0.303
 2014 278   114   600   302     35     22    474     0     0   200    0.00   0.0   0.0   0.00   0.279   0.277   0.278   0.264   0.310   0.309   0.304   0.304   0.305   0.305
 2014 279   115   594   296     35     22    474     0     0   200    0.00   0.0   0.0   0.00   0.257   0.258   0.259   0.256   0.309   0.308   0.304   0.304   0.305   0.305
 2014 280   116   607   308     36     22    491     0     0   200    0.00   0.0   0.0   1.12   0.331   0.303   0.312   0.267   0.313   0.306   0.303   0.303   0.305   0.304
 2014 281   117   611   313     36     22    500     0     0   200    0.00   0.0   0.0   0.14   0.330   0.303   0.322   0.277   0.320   0.312   0.306   0.303   0.304   0.304
 2014 282   118   615   317     36     22    509     0     0   200    0.00   0.0   0.0   0.14   0.330   0.303   0.322   0.282   0.326   0.318   0.309   0.307   0.307   0.304
 2014 283   119   619   321     36     22    518     0     0   200    0.00   0.0   0.0   0.14   0.330   0.303   0.322   0.284   0.330   0.322   0.313   0.310   0.309   0.307
 2014 284   120   602   304     36     33    518     0     0   200    0.00   0.0   0.0   0.00   0.279   0.270   0.278   0.265   0.316   0.312   0.307   0.306   0.306   0.306
 2014 285   121   596   298     36     35    518     0     0   200    0.00   0.0   0.0   0.00   0.257   0.256   0.260   0.258   0.309   0.309   0.305   0.306   0.306   0.306
 2014 286   122   591   293     36     35    518     0     0   200    0.00   0.0   0.0   0.00   0.247   0.248   0.253   0.251   0.303   0.302   0.304   0.305   0.305   0.306
 2014 287   123   586   288     36     35    518     0     0   200    0.00   0.0   0.0   0.00   0.238   0.242   0.246   0.245   0.297   0.296   0.304   0.305   0.305   0.305
 2014 288   124   581   283     36     35    518     0     0   200    0.00   0.0   0.0   0.00   0.227   0.234   0.239   0.238   0.291   0.289   0.303   0.304   0.305   0.305
 2014 289   125   576   277     36     35    518     0     0   200    0.00   0.0   0.0   0.00   0.217   0.226   0.231   0.231   0.284   0.282   0.303   0.304   0.304   0.305
 2014 290   126   571   273     36     35    518     0     0   200    0.00   0.0   0.0   0.00   0.199   0.219   0.225   0.224   0.278   0.276   0.303   0.304   0.304   0.305
 2014 291   127   566   268     36     35    518     0     0   200    0.00   0.0   0.0   0.00   0.185   0.215   0.219   0.217   0.271   0.269   0.303   0.304   0.304   0.305
 2014 292   128   580   282     37     35    539     0     0   200    0.00   0.0   0.0   1.10   0.333   0.284   0.273   0.218   0.264   0.261   0.302   0.303   0.304   0.304
 2014 293   129   575   277     37     35    539     0     0   200    0.00   0.0   0.0   0.00   0.277   0.262   0.258   0.238   0.258   0.255   0.301   0.303   0.303   0.304
 2014 294   130   570   272     37     35    539     0     0   200    0.00   0.0   0.0   0.00   0.256   0.255   0.254   0.235   0.252   0.249   0.301   0.302   0.303   0.303
 2014 295   131   566   268     37     35    539     0     0   200    0.00   0.0   0.0   0.00   0.233   0.249   0.249   0.230   0.248   0.244   0.300   0.302   0.303   0.303
 2014 296   132   562   264     37     35    539     0     0   200    0.00   0.0   0.0   0.00   0.211   0.243   0.243   0.225   0.243   0.239   0.300   0.302   0.303   0.303
 2014 297   133   558   260     37     35    539     0     0   200    0.00   0.0   0.0   0.00   0.195   0.236   0.237   0.219   0.238   0.234   0.300   0.302   0.303   0.303
