*SOIL INORGANIC N BALANCE

*DSSAT Cropping System Model Ver. 4.7.5.008 -release  JAN 07, 2021 20:14:37

*RUN   1        : ERiMA DCC1                MZCER047 ETMZmelk    1
 MODEL          : MZCER047 - Maize
 EXPERIMENT     : ETMZmelk SN MELKSSAL
 DATA PATH      : C:\IRI\Python_Dash\ET_DSS_hist\TEST\
 TREATMENT  1   : ERiMA DCC1                MZCER047
  


!SOIL INORGANIC N BALANCE                         Initial               Final
!                                                Year/Doy            Year/Doy
!                                                1981/165            1981/305
!                                               (kg[N]/ha)          (kg[N]/ha)
! Soil N state variables:
!   Soil NO3                                        39.60               82.20
!   Soil NH4                                         2.43                1.42
!   Soil Urea                                        0.00                0.00
!   Soil N gases                                     0.00                0.09

! N additions:
!   Fertilizer N                                    60.00
!   Mineralized N                                  130.63

! N subtractions:
!   N immobilized                                                        0.00
!   N leached                                                            4.13
!   N loss to tile drainage                                              0.00
!   N Uptake From Soil                                                 143.55
!   NH3 loss                                                             0.00
!   N2O loss                                                             0.19
!   N2 loss                                                              0.45
!   NO loss                                                              0.64

!   Total N balance                                232.66              232.66
!   Balance                                                            -0.000

!===============================================================================

*DSSAT Cropping System Model Ver. 4.7.5.008 -release  JAN 07, 2021 20:14:37

*RUN   2        : ERiMA DCC1                MZCER047 ETMZmelk    1
 MODEL          : MZCER047 - Maize
 EXPERIMENT     : ETMZmelk SN MELKSSAL
 DATA PATH      : C:\IRI\Python_Dash\ET_DSS_hist\TEST\
 TREATMENT  1   : ERiMA DCC1                MZCER047
  


!SOIL INORGANIC N BALANCE                         Initial               Final
!                                                Year/Doy            Year/Doy
!                                                1982/165            1982/305
!                                               (kg[N]/ha)          (kg[N]/ha)
! Soil N state variables:
!   Soil NO3                                        39.60               80.12
!   Soil NH4                                         2.43                1.40
!   Soil Urea                                        0.00                0.00
!   Soil N gases                                     0.00                0.10

! N additions:
!   Fertilizer N                                    60.00
!   Mineralized N                                  124.07

! N subtractions:
!   N immobilized                                                        0.00
!   N leached                                                            3.02
!   N loss to tile drainage                                              0.00
!   N Uptake From Soil                                                 140.24
!   NH3 loss                                                             0.00
!   N2O loss                                                             0.22
!   N2 loss                                                              0.32
!   NO loss                                                              0.69

!   Total N balance                                226.10              226.10
!   Balance                                                            -0.000

!===============================================================================

*DSSAT Cropping System Model Ver. 4.7.5.008 -release  JAN 07, 2021 20:14:37

*RUN   3        : ERiMA DCC1                MZCER047 ETMZmelk    1
 MODEL          : MZCER047 - Maize
 EXPERIMENT     : ETMZmelk SN MELKSSAL
 DATA PATH      : C:\IRI\Python_Dash\ET_DSS_hist\TEST\
 TREATMENT  1   : ERiMA DCC1                MZCER047
  


!SOIL INORGANIC N BALANCE                         Initial               Final
!                                                Year/Doy            Year/Doy
!                                                1983/165            1983/302
!                                               (kg[N]/ha)          (kg[N]/ha)
! Soil N state variables:
!   Soil NO3                                        39.60               74.05
!   Soil NH4                                         2.43                1.60
!   Soil Urea                                        0.00                0.00
!   Soil N gases                                     0.00                0.17

! N additions:
!   Fertilizer N                                    60.00
!   Mineralized N                                  126.90

! N subtractions:
!   N immobilized                                                        0.00
!   N leached                                                            4.73
!   N loss to tile drainage                                              0.00
!   N Uptake From Soil                                                 147.31
!   NH3 loss                                                             0.00
!   N2O loss                                                             0.15
!   N2 loss                                                              0.15
!   NO loss                                                              0.77

!   Total N balance                                228.93              228.93
!   Balance                                                             0.000

!===============================================================================

*DSSAT Cropping System Model Ver. 4.7.5.008 -release  JAN 07, 2021 20:14:37

*RUN   4        : ERiMA DCC1                MZCER047 ETMZmelk    1
 MODEL          : MZCER047 - Maize
 EXPERIMENT     : ETMZmelk SN MELKSSAL
 DATA PATH      : C:\IRI\Python_Dash\ET_DSS_hist\TEST\
 TREATMENT  1   : ERiMA DCC1                MZCER047
  


!SOIL INORGANIC N BALANCE                         Initial               Final
!                                                Year/Doy            Year/Doy
!                                                1984/165            1984/296
!                                               (kg[N]/ha)          (kg[N]/ha)
! Soil N state variables:
!   Soil NO3                                        39.60               76.29
!   Soil NH4                                         2.43                1.41
!   Soil Urea                                        0.00                0.00
!   Soil N gases                                     0.00                0.11

! N additions:
!   Fertilizer N                                    60.00
!   Mineralized N                                  112.07

! N subtractions:
!   N immobilized                                                        0.00
!   N leached                                                            1.11
!   N loss to tile drainage                                              0.00
!   N Uptake From Soil                                                 134.16
!   NH3 loss                                                             0.00
!   N2O loss                                                             0.17
!   N2 loss                                                              0.24
!   NO loss                                                              0.60

!   Total N balance                                214.10              214.10
!   Balance                                                             0.000

!===============================================================================

*DSSAT Cropping System Model Ver. 4.7.5.008 -release  JAN 07, 2021 20:14:37

*RUN   5        : ERiMA DCC1                MZCER047 ETMZmelk    1
 MODEL          : MZCER047 - Maize
 EXPERIMENT     : ETMZmelk SN MELKSSAL
 DATA PATH      : C:\IRI\Python_Dash\ET_DSS_hist\TEST\
 TREATMENT  1   : ERiMA DCC1                MZCER047
  


!SOIL INORGANIC N BALANCE                         Initial               Final
!                                                Year/Doy            Year/Doy
!                                                1985/165            1985/311
!                                               (kg[N]/ha)          (kg[N]/ha)
! Soil N state variables:
!   Soil NO3                                        39.60               97.42
!   Soil NH4                                         2.43                1.42
!   Soil Urea                                        0.00                0.00
!   Soil N gases                                     0.00                0.09

! N additions:
!   Fertilizer N                                    60.00
!   Mineralized N                                  127.63

! N subtractions:
!   N immobilized                                                        0.00
!   N leached                                                           10.10
!   N loss to tile drainage                                              0.00
!   N Uptake From Soil                                                 118.69
!   NH3 loss                                                             0.00
!   N2O loss                                                             0.26
!   N2 loss                                                              0.72
!   NO loss                                                              0.94

!   Total N balance                                229.65              229.65
!   Balance                                                            -0.000

!===============================================================================

*DSSAT Cropping System Model Ver. 4.7.5.008 -release  JAN 07, 2021 20:14:37

*RUN   6        : ERiMA DCC1                MZCER047 ETMZmelk    1
 MODEL          : MZCER047 - Maize
 EXPERIMENT     : ETMZmelk SN MELKSSAL
 DATA PATH      : C:\IRI\Python_Dash\ET_DSS_hist\TEST\
 TREATMENT  1   : ERiMA DCC1                MZCER047
  


!SOIL INORGANIC N BALANCE                         Initial               Final
!                                                Year/Doy            Year/Doy
!                                                1986/165            1986/293
!                                               (kg[N]/ha)          (kg[N]/ha)
! Soil N state variables:
!   Soil NO3                                        39.60               76.56
!   Soil NH4                                         2.43                1.41
!   Soil Urea                                        0.00                0.00
!   Soil N gases                                     0.00                0.08

! N additions:
!   Fertilizer N                                    60.00
!   Mineralized N                                  110.54

! N subtractions:
!   N immobilized                                                        0.00
!   N leached                                                            0.77
!   N loss to tile drainage                                              0.00
!   N Uptake From Soil                                                 133.00
!   NH3 loss                                                             0.00
!   N2O loss                                                             0.15
!   N2 loss                                                              0.07
!   NO loss                                                              0.55

!   Total N balance                                212.57              212.57
!   Balance                                                             0.000

!===============================================================================

*DSSAT Cropping System Model Ver. 4.7.5.008 -release  JAN 07, 2021 20:14:37

*RUN   7        : ERiMA DCC1                MZCER047 ETMZmelk    1
 MODEL          : MZCER047 - Maize
 EXPERIMENT     : ETMZmelk SN MELKSSAL
 DATA PATH      : C:\IRI\Python_Dash\ET_DSS_hist\TEST\
 TREATMENT  1   : ERiMA DCC1                MZCER047
  


!SOIL INORGANIC N BALANCE                         Initial               Final
!                                                Year/Doy            Year/Doy
!                                                1987/165            1987/292
!                                               (kg[N]/ha)          (kg[N]/ha)
! Soil N state variables:
!   Soil NO3                                        39.60               84.31
!   Soil NH4                                         2.43                1.41
!   Soil Urea                                        0.00                0.00
!   Soil N gases                                     0.00                0.08

! N additions:
!   Fertilizer N                                    60.00
!   Mineralized N                                  111.17

! N subtractions:
!   N immobilized                                                        0.00
!   N leached                                                            0.20
!   N loss to tile drainage                                              0.00
!   N Uptake From Soil                                                 126.43
!   NH3 loss                                                             0.00
!   N2O loss                                                             0.14
!   N2 loss                                                              0.00
!   NO loss                                                              0.62

!   Total N balance                                213.20              213.20
!   Balance                                                             0.000

!===============================================================================

*DSSAT Cropping System Model Ver. 4.7.5.008 -release  JAN 07, 2021 20:14:37

*RUN   8        : ERiMA DCC1                MZCER047 ETMZmelk    1
 MODEL          : MZCER047 - Maize
 EXPERIMENT     : ETMZmelk SN MELKSSAL
 DATA PATH      : C:\IRI\Python_Dash\ET_DSS_hist\TEST\
 TREATMENT  1   : ERiMA DCC1                MZCER047
  


!SOIL INORGANIC N BALANCE                         Initial               Final
!                                                Year/Doy            Year/Doy
!                                                1988/165            1988/304
!                                               (kg[N]/ha)          (kg[N]/ha)
! Soil N state variables:
!   Soil NO3                                        39.60               83.35
!   Soil NH4                                         2.43                1.43
!   Soil Urea                                        0.00                0.00
!   Soil N gases                                     0.00                0.13

! N additions:
!   Fertilizer N                                    60.00
!   Mineralized N                                  125.78

! N subtractions:
!   N immobilized                                                        0.00
!   N leached                                                            9.30
!   N loss to tile drainage                                              0.00
!   N Uptake From Soil                                                 132.28
!   NH3 loss                                                             0.00
!   N2O loss                                                             0.20
!   N2 loss                                                              0.43
!   NO loss                                                              0.69

!   Total N balance                                227.81              227.81
!   Balance                                                            -0.000

!===============================================================================

*DSSAT Cropping System Model Ver. 4.7.5.008 -release  JAN 07, 2021 20:14:37

*RUN   9        : ERiMA DCC1                MZCER047 ETMZmelk    1
 MODEL          : MZCER047 - Maize
 EXPERIMENT     : ETMZmelk SN MELKSSAL
 DATA PATH      : C:\IRI\Python_Dash\ET_DSS_hist\TEST\
 TREATMENT  1   : ERiMA DCC1                MZCER047
  


!SOIL INORGANIC N BALANCE                         Initial               Final
!                                                Year/Doy            Year/Doy
!                                                1989/165            1989/301
!                                               (kg[N]/ha)          (kg[N]/ha)
! Soil N state variables:
!   Soil NO3                                        39.60               76.22
!   Soil NH4                                         2.43                1.50
!   Soil Urea                                        0.00                0.00
!   Soil N gases                                     0.00                0.20

! N additions:
!   Fertilizer N                                    60.00
!   Mineralized N                                  126.88

! N subtractions:
!   N immobilized                                                        0.00
!   N leached                                                            8.74
!   N loss to tile drainage                                              0.00
!   N Uptake From Soil                                                 140.62
!   NH3 loss                                                             0.00
!   N2O loss                                                             0.29
!   N2 loss                                                              0.53
!   NO loss                                                              0.80

!   Total N balance                                228.91              228.91
!   Balance                                                            -0.000

!===============================================================================

*DSSAT Cropping System Model Ver. 4.7.5.008 -release  JAN 07, 2021 20:14:37

*RUN  10        : ERiMA DCC1                MZCER047 ETMZmelk    1
 MODEL          : MZCER047 - Maize
 EXPERIMENT     : ETMZmelk SN MELKSSAL
 DATA PATH      : C:\IRI\Python_Dash\ET_DSS_hist\TEST\
 TREATMENT  1   : ERiMA DCC1                MZCER047
  


!SOIL INORGANIC N BALANCE                         Initial               Final
!                                                Year/Doy            Year/Doy
!                                                1990/165            1990/300
!                                               (kg[N]/ha)          (kg[N]/ha)
! Soil N state variables:
!   Soil NO3                                        39.60               80.48
!   Soil NH4                                         2.43                1.37
!   Soil Urea                                        0.00                0.00
!   Soil N gases                                     0.00                0.09

! N additions:
!   Fertilizer N                                    60.00
!   Mineralized N                                  128.56

! N subtractions:
!   N immobilized                                                        0.00
!   N leached                                                            1.15
!   N loss to tile drainage                                              0.00
!   N Uptake From Soil                                                 146.77
!   NH3 loss                                                             0.00
!   N2O loss                                                             0.14
!   N2 loss                                                              0.00
!   NO loss                                                              0.58

!   Total N balance                                230.59              230.59
!   Balance                                                             0.000

!===============================================================================

*DSSAT Cropping System Model Ver. 4.7.5.008 -release  JAN 07, 2021 20:14:37

*RUN  11        : ERiMA DCC1                MZCER047 ETMZmelk    1
 MODEL          : MZCER047 - Maize
 EXPERIMENT     : ETMZmelk SN MELKSSAL
 DATA PATH      : C:\IRI\Python_Dash\ET_DSS_hist\TEST\
 TREATMENT  1   : ERiMA DCC1                MZCER047
  


!SOIL INORGANIC N BALANCE                         Initial               Final
!                                                Year/Doy            Year/Doy
!                                                1991/165            1991/292
!                                               (kg[N]/ha)          (kg[N]/ha)
! Soil N state variables:
!   Soil NO3                                        39.60               75.21
!   Soil NH4                                         2.43                1.39
!   Soil Urea                                        0.00                0.00
!   Soil N gases                                     0.00                0.10

! N additions:
!   Fertilizer N                                    60.00
!   Mineralized N                                  117.19

! N subtractions:
!   N immobilized                                                        0.00
!   N leached                                                            2.23
!   N loss to tile drainage                                              0.00
!   N Uptake From Soil                                                 139.45
!   NH3 loss                                                             0.00
!   N2O loss                                                             0.17
!   N2 loss                                                              0.09
!   NO loss                                                              0.58

!   Total N balance                                219.22              219.22
!   Balance                                                             0.000

!===============================================================================

*DSSAT Cropping System Model Ver. 4.7.5.008 -release  JAN 07, 2021 20:14:37

*RUN  12        : ERiMA DCC1                MZCER047 ETMZmelk    1
 MODEL          : MZCER047 - Maize
 EXPERIMENT     : ETMZmelk SN MELKSSAL
 DATA PATH      : C:\IRI\Python_Dash\ET_DSS_hist\TEST\
 TREATMENT  1   : ERiMA DCC1                MZCER047
  


!SOIL INORGANIC N BALANCE                         Initial               Final
!                                                Year/Doy            Year/Doy
!                                                1992/165            1992/305
!                                               (kg[N]/ha)          (kg[N]/ha)
! Soil N state variables:
!   Soil NO3                                        39.60               76.62
!   Soil NH4                                         2.43                1.43
!   Soil Urea                                        0.00                0.00
!   Soil N gases                                     0.00                0.13

! N additions:
!   Fertilizer N                                    60.00
!   Mineralized N                                  129.59

! N subtractions:
!   N immobilized                                                        0.00
!   N leached                                                           10.08
!   N loss to tile drainage                                              0.00
!   N Uptake From Soil                                                 142.24
!   NH3 loss                                                             0.00
!   N2O loss                                                             0.16
!   N2 loss                                                              0.22
!   NO loss                                                              0.73

!   Total N balance                                231.62              231.62
!   Balance                                                            -0.000

!===============================================================================

*DSSAT Cropping System Model Ver. 4.7.5.008 -release  JAN 07, 2021 20:14:37

*RUN  13        : ERiMA DCC1                MZCER047 ETMZmelk    1
 MODEL          : MZCER047 - Maize
 EXPERIMENT     : ETMZmelk SN MELKSSAL
 DATA PATH      : C:\IRI\Python_Dash\ET_DSS_hist\TEST\
 TREATMENT  1   : ERiMA DCC1                MZCER047
  


!SOIL INORGANIC N BALANCE                         Initial               Final
!                                                Year/Doy            Year/Doy
!                                                1993/165            1993/301
!                                               (kg[N]/ha)          (kg[N]/ha)
! Soil N state variables:
!   Soil NO3                                        39.60               81.66
!   Soil NH4                                         2.43                1.49
!   Soil Urea                                        0.00                0.00
!   Soil N gases                                     0.00                0.13

! N additions:
!   Fertilizer N                                    60.00
!   Mineralized N                                  129.65

! N subtractions:
!   N immobilized                                                        0.00
!   N leached                                                            6.00
!   N loss to tile drainage                                              0.00
!   N Uptake From Soil                                                 141.58
!   NH3 loss                                                             0.00
!   N2O loss                                                             0.15
!   N2 loss                                                              0.08
!   NO loss                                                              0.58

!   Total N balance                                231.67              231.67
!   Balance                                                             0.000

!===============================================================================

*DSSAT Cropping System Model Ver. 4.7.5.008 -release  JAN 07, 2021 20:14:37

*RUN  14        : ERiMA DCC1                MZCER047 ETMZmelk    1
 MODEL          : MZCER047 - Maize
 EXPERIMENT     : ETMZmelk SN MELKSSAL
 DATA PATH      : C:\IRI\Python_Dash\ET_DSS_hist\TEST\
 TREATMENT  1   : ERiMA DCC1                MZCER047
  


!SOIL INORGANIC N BALANCE                         Initial               Final
!                                                Year/Doy            Year/Doy
!                                                1994/165            1994/299
!                                               (kg[N]/ha)          (kg[N]/ha)
! Soil N state variables:
!   Soil NO3                                        39.60               86.43
!   Soil NH4                                         2.43                1.38
!   Soil Urea                                        0.00                0.00
!   Soil N gases                                     0.00                0.10

! N additions:
!   Fertilizer N                                    60.00
!   Mineralized N                                  119.55

! N subtractions:
!   N immobilized                                                        0.00
!   N leached                                                            3.86
!   N loss to tile drainage                                              0.00
!   N Uptake From Soil                                                 128.76
!   NH3 loss                                                             0.00
!   N2O loss                                                             0.17
!   N2 loss                                                              0.17
!   NO loss                                                              0.71

!   Total N balance                                221.58              221.58
!   Balance                                                            -0.000

!===============================================================================

*DSSAT Cropping System Model Ver. 4.7.5.008 -release  JAN 07, 2021 20:14:37

*RUN  15        : ERiMA DCC1                MZCER047 ETMZmelk    1
 MODEL          : MZCER047 - Maize
 EXPERIMENT     : ETMZmelk SN MELKSSAL
 DATA PATH      : C:\IRI\Python_Dash\ET_DSS_hist\TEST\
 TREATMENT  1   : ERiMA DCC1                MZCER047
  


!SOIL INORGANIC N BALANCE                         Initial               Final
!                                                Year/Doy            Year/Doy
!                                                1995/165            1995/295
!                                               (kg[N]/ha)          (kg[N]/ha)
! Soil N state variables:
!   Soil NO3                                        39.60               80.28
!   Soil NH4                                         2.43                1.38
!   Soil Urea                                        0.00                0.00
!   Soil N gases                                     0.00                0.12

! N additions:
!   Fertilizer N                                    60.00
!   Mineralized N                                  123.65

! N subtractions:
!   N immobilized                                                        0.00
!   N leached                                                            4.51
!   N loss to tile drainage                                              0.00
!   N Uptake From Soil                                                 138.24
!   NH3 loss                                                             0.00
!   N2O loss                                                             0.20
!   N2 loss                                                              0.27
!   NO loss                                                              0.68

!   Total N balance                                225.68              225.68
!   Balance                                                            -0.000

!===============================================================================

*DSSAT Cropping System Model Ver. 4.7.5.008 -release  JAN 07, 2021 20:14:37

*RUN  16        : ERiMA DCC1                MZCER047 ETMZmelk    1
 MODEL          : MZCER047 - Maize
 EXPERIMENT     : ETMZmelk SN MELKSSAL
 DATA PATH      : C:\IRI\Python_Dash\ET_DSS_hist\TEST\
 TREATMENT  1   : ERiMA DCC1                MZCER047
  


!SOIL INORGANIC N BALANCE                         Initial               Final
!                                                Year/Doy            Year/Doy
!                                                1996/165            1996/302
!                                               (kg[N]/ha)          (kg[N]/ha)
! Soil N state variables:
!   Soil NO3                                        39.60               85.69
!   Soil NH4                                         2.43                1.39
!   Soil Urea                                        0.00                0.00
!   Soil N gases                                     0.00                0.09

! N additions:
!   Fertilizer N                                    60.00
!   Mineralized N                                  121.99

! N subtractions:
!   N immobilized                                                        0.00
!   N leached                                                            3.49
!   N loss to tile drainage                                              0.00
!   N Uptake From Soil                                                 132.01
!   NH3 loss                                                             0.00
!   N2O loss                                                             0.28
!   N2 loss                                                              0.36
!   NO loss                                                              0.71

!   Total N balance                                224.02              224.02
!   Balance                                                            -0.000

!===============================================================================

*DSSAT Cropping System Model Ver. 4.7.5.008 -release  JAN 07, 2021 20:14:37

*RUN  17        : ERiMA DCC1                MZCER047 ETMZmelk    1
 MODEL          : MZCER047 - Maize
 EXPERIMENT     : ETMZmelk SN MELKSSAL
 DATA PATH      : C:\IRI\Python_Dash\ET_DSS_hist\TEST\
 TREATMENT  1   : ERiMA DCC1                MZCER047
  


!SOIL INORGANIC N BALANCE                         Initial               Final
!                                                Year/Doy            Year/Doy
!                                                1997/165            1997/290
!                                               (kg[N]/ha)          (kg[N]/ha)
! Soil N state variables:
!   Soil NO3                                        39.60               91.77
!   Soil NH4                                         2.43                1.39
!   Soil Urea                                        0.00                0.00
!   Soil N gases                                     0.00                0.09

! N additions:
!   Fertilizer N                                    60.00
!   Mineralized N                                  116.01

! N subtractions:
!   N immobilized                                                        0.00
!   N leached                                                            3.65
!   N loss to tile drainage                                              0.00
!   N Uptake From Soil                                                 119.92
!   NH3 loss                                                             0.00
!   N2O loss                                                             0.21
!   N2 loss                                                              0.23
!   NO loss                                                              0.77

!   Total N balance                                218.04              218.04
!   Balance                                                             0.000

!===============================================================================

*DSSAT Cropping System Model Ver. 4.7.5.008 -release  JAN 07, 2021 20:14:37

*RUN  18        : ERiMA DCC1                MZCER047 ETMZmelk    1
 MODEL          : MZCER047 - Maize
 EXPERIMENT     : ETMZmelk SN MELKSSAL
 DATA PATH      : C:\IRI\Python_Dash\ET_DSS_hist\TEST\
 TREATMENT  1   : ERiMA DCC1                MZCER047
  


!SOIL INORGANIC N BALANCE                         Initial               Final
!                                                Year/Doy            Year/Doy
!                                                1998/165            1998/300
!                                               (kg[N]/ha)          (kg[N]/ha)
! Soil N state variables:
!   Soil NO3                                        39.60               75.27
!   Soil NH4                                         2.43                1.75
!   Soil Urea                                        0.00                0.00
!   Soil N gases                                     0.00                0.14

! N additions:
!   Fertilizer N                                    60.00
!   Mineralized N                                  133.78

! N subtractions:
!   N immobilized                                                        0.00
!   N leached                                                           16.42
!   N loss to tile drainage                                              0.00
!   N Uptake From Soil                                                 140.99
!   NH3 loss                                                             0.00
!   N2O loss                                                             0.18
!   N2 loss                                                              0.39
!   NO loss                                                              0.65

!   Total N balance                                235.81              235.81
!   Balance                                                            -0.000

!===============================================================================

*DSSAT Cropping System Model Ver. 4.7.5.008 -release  JAN 07, 2021 20:14:37

*RUN  19        : ERiMA DCC1                MZCER047 ETMZmelk    1
 MODEL          : MZCER047 - Maize
 EXPERIMENT     : ETMZmelk SN MELKSSAL
 DATA PATH      : C:\IRI\Python_Dash\ET_DSS_hist\TEST\
 TREATMENT  1   : ERiMA DCC1                MZCER047
  


!SOIL INORGANIC N BALANCE                         Initial               Final
!                                                Year/Doy            Year/Doy
!                                                1999/165            1999/308
!                                               (kg[N]/ha)          (kg[N]/ha)
! Soil N state variables:
!   Soil NO3                                        39.60              100.17
!   Soil NH4                                         2.43                1.41
!   Soil Urea                                        0.00                0.00
!   Soil N gases                                     0.00                0.08

! N additions:
!   Fertilizer N                                    60.00
!   Mineralized N                                  122.53

! N subtractions:
!   N immobilized                                                        0.00
!   N leached                                                            7.34
!   N loss to tile drainage                                              0.00
!   N Uptake From Soil                                                 113.82
!   NH3 loss                                                             0.00
!   N2O loss                                                             0.26
!   N2 loss                                                              0.61
!   NO loss                                                              0.85

!   Total N balance                                224.56              224.56
!   Balance                                                             0.000

!===============================================================================

*DSSAT Cropping System Model Ver. 4.7.5.008 -release  JAN 07, 2021 20:14:37

*RUN  20        : ERiMA DCC1                MZCER047 ETMZmelk    1
 MODEL          : MZCER047 - Maize
 EXPERIMENT     : ETMZmelk SN MELKSSAL
 DATA PATH      : C:\IRI\Python_Dash\ET_DSS_hist\TEST\
 TREATMENT  1   : ERiMA DCC1                MZCER047
  


!SOIL INORGANIC N BALANCE                         Initial               Final
!                                                Year/Doy            Year/Doy
!                                                2000/165            2000/306
!                                               (kg[N]/ha)          (kg[N]/ha)
! Soil N state variables:
!   Soil NO3                                        39.60               90.53
!   Soil NH4                                         2.43                1.43
!   Soil Urea                                        0.00                0.00
!   Soil N gases                                     0.00                0.10

! N additions:
!   Fertilizer N                                    60.00
!   Mineralized N                                  131.22

! N subtractions:
!   N immobilized                                                        0.00
!   N leached                                                            6.88
!   N loss to tile drainage                                              0.00
!   N Uptake From Soil                                                 132.86
!   NH3 loss                                                             0.00
!   N2O loss                                                             0.23
!   N2 loss                                                              0.41
!   NO loss                                                              0.81

!   Total N balance                                233.25              233.25
!   Balance                                                            -0.000

!===============================================================================

*DSSAT Cropping System Model Ver. 4.7.5.008 -release  JAN 07, 2021 20:14:37

*RUN  21        : ERiMA DCC1                MZCER047 ETMZmelk    1
 MODEL          : MZCER047 - Maize
 EXPERIMENT     : ETMZmelk SN MELKSSAL
 DATA PATH      : C:\IRI\Python_Dash\ET_DSS_hist\TEST\
 TREATMENT  1   : ERiMA DCC1                MZCER047
  


!SOIL INORGANIC N BALANCE                         Initial               Final
!                                                Year/Doy            Year/Doy
!                                                2001/165            2001/300
!                                               (kg[N]/ha)          (kg[N]/ha)
! Soil N state variables:
!   Soil NO3                                        39.60               86.65
!   Soil NH4                                         2.43                1.42
!   Soil Urea                                        0.00                0.00
!   Soil N gases                                     0.00                0.13

! N additions:
!   Fertilizer N                                    60.00
!   Mineralized N                                  123.64

! N subtractions:
!   N immobilized                                                        0.00
!   N leached                                                           10.16
!   N loss to tile drainage                                              0.00
!   N Uptake From Soil                                                 126.21
!   NH3 loss                                                             0.00
!   N2O loss                                                             0.16
!   N2 loss                                                              0.23
!   NO loss                                                              0.70

!   Total N balance                                225.67              225.67
!   Balance                                                             0.000

!===============================================================================

*DSSAT Cropping System Model Ver. 4.7.5.008 -release  JAN 07, 2021 20:14:37

*RUN  22        : ERiMA DCC1                MZCER047 ETMZmelk    1
 MODEL          : MZCER047 - Maize
 EXPERIMENT     : ETMZmelk SN MELKSSAL
 DATA PATH      : C:\IRI\Python_Dash\ET_DSS_hist\TEST\
 TREATMENT  1   : ERiMA DCC1                MZCER047
  


!SOIL INORGANIC N BALANCE                         Initial               Final
!                                                Year/Doy            Year/Doy
!                                                2002/165            2002/291
!                                               (kg[N]/ha)          (kg[N]/ha)
! Soil N state variables:
!   Soil NO3                                        39.60               93.09
!   Soil NH4                                         2.43                1.36
!   Soil Urea                                        0.00                0.00
!   Soil N gases                                     0.00                0.09

! N additions:
!   Fertilizer N                                    60.00
!   Mineralized N                                  115.99

! N subtractions:
!   N immobilized                                                        0.00
!   N leached                                                            3.09
!   N loss to tile drainage                                              0.00
!   N Uptake From Soil                                                 119.33
!   NH3 loss                                                             0.00
!   N2O loss                                                             0.18
!   N2 loss                                                              0.16
!   NO loss                                                              0.72

!   Total N balance                                218.02              218.02
!   Balance                                                             0.000

!===============================================================================

*DSSAT Cropping System Model Ver. 4.7.5.008 -release  JAN 07, 2021 20:14:37

*RUN  23        : ERiMA DCC1                MZCER047 ETMZmelk    1
 MODEL          : MZCER047 - Maize
 EXPERIMENT     : ETMZmelk SN MELKSSAL
 DATA PATH      : C:\IRI\Python_Dash\ET_DSS_hist\TEST\
 TREATMENT  1   : ERiMA DCC1                MZCER047
  


!SOIL INORGANIC N BALANCE                         Initial               Final
!                                                Year/Doy            Year/Doy
!                                                2003/165            2003/297
!                                               (kg[N]/ha)          (kg[N]/ha)
! Soil N state variables:
!   Soil NO3                                        39.60               83.39
!   Soil NH4                                         2.43                1.41
!   Soil Urea                                        0.00                0.00
!   Soil N gases                                     0.00                0.14

! N additions:
!   Fertilizer N                                    60.00
!   Mineralized N                                  124.38

! N subtractions:
!   N immobilized                                                        0.00
!   N leached                                                            8.80
!   N loss to tile drainage                                              0.00
!   N Uptake From Soil                                                 131.56
!   NH3 loss                                                             0.00
!   N2O loss                                                             0.18
!   N2 loss                                                              0.31
!   NO loss                                                              0.62

!   Total N balance                                226.41              226.41
!   Balance                                                             0.000

!===============================================================================

*DSSAT Cropping System Model Ver. 4.7.5.008 -release  JAN 07, 2021 20:14:37

*RUN  24        : ERiMA DCC1                MZCER047 ETMZmelk    1
 MODEL          : MZCER047 - Maize
 EXPERIMENT     : ETMZmelk SN MELKSSAL
 DATA PATH      : C:\IRI\Python_Dash\ET_DSS_hist\TEST\
 TREATMENT  1   : ERiMA DCC1                MZCER047
  


!SOIL INORGANIC N BALANCE                         Initial               Final
!                                                Year/Doy            Year/Doy
!                                                2004/165            2004/303
!                                               (kg[N]/ha)          (kg[N]/ha)
! Soil N state variables:
!   Soil NO3                                        39.60               84.67
!   Soil NH4                                         2.43                1.44
!   Soil Urea                                        0.00                0.00
!   Soil N gases                                     0.00                0.08

! N additions:
!   Fertilizer N                                    60.00
!   Mineralized N                                  124.88

! N subtractions:
!   N immobilized                                                        0.00
!   N leached                                                            5.74
!   N loss to tile drainage                                              0.00
!   N Uptake From Soil                                                 134.10
!   NH3 loss                                                             0.00
!   N2O loss                                                             0.15
!   N2 loss                                                              0.08
!   NO loss                                                              0.64

!   Total N balance                                226.91              226.91
!   Balance                                                            -0.000

!===============================================================================

*DSSAT Cropping System Model Ver. 4.7.5.008 -release  JAN 07, 2021 20:14:37

*RUN  25        : ERiMA DCC1                MZCER047 ETMZmelk    1
 MODEL          : MZCER047 - Maize
 EXPERIMENT     : ETMZmelk SN MELKSSAL
 DATA PATH      : C:\IRI\Python_Dash\ET_DSS_hist\TEST\
 TREATMENT  1   : ERiMA DCC1                MZCER047
  


!SOIL INORGANIC N BALANCE                         Initial               Final
!                                                Year/Doy            Year/Doy
!                                                2005/165            2005/296
!                                               (kg[N]/ha)          (kg[N]/ha)
! Soil N state variables:
!   Soil NO3                                        39.60               80.60
!   Soil NH4                                         2.43                1.35
!   Soil Urea                                        0.00                0.00
!   Soil N gases                                     0.00                0.09

! N additions:
!   Fertilizer N                                    60.00
!   Mineralized N                                  119.73

! N subtractions:
!   N immobilized                                                        0.00
!   N leached                                                            3.20
!   N loss to tile drainage                                              0.00
!   N Uptake From Soil                                                 135.36
!   NH3 loss                                                             0.00
!   N2O loss                                                             0.23
!   N2 loss                                                              0.21
!   NO loss                                                              0.71

!   Total N balance                                221.76              221.76
!   Balance                                                            -0.000

!===============================================================================

*DSSAT Cropping System Model Ver. 4.7.5.008 -release  JAN 07, 2021 20:14:37

*RUN  26        : ERiMA DCC1                MZCER047 ETMZmelk    1
 MODEL          : MZCER047 - Maize
 EXPERIMENT     : ETMZmelk SN MELKSSAL
 DATA PATH      : C:\IRI\Python_Dash\ET_DSS_hist\TEST\
 TREATMENT  1   : ERiMA DCC1                MZCER047
  


!SOIL INORGANIC N BALANCE                         Initial               Final
!                                                Year/Doy            Year/Doy
!                                                2006/165            2006/296
!                                               (kg[N]/ha)          (kg[N]/ha)
! Soil N state variables:
!   Soil NO3                                        39.60               79.98
!   Soil NH4                                         2.43                1.40
!   Soil Urea                                        0.00                0.00
!   Soil N gases                                     0.00                0.11

! N additions:
!   Fertilizer N                                    60.00
!   Mineralized N                                  123.94

! N subtractions:
!   N immobilized                                                        0.00
!   N leached                                                            5.15
!   N loss to tile drainage                                              0.00
!   N Uptake From Soil                                                 138.14
!   NH3 loss                                                             0.00
!   N2O loss                                                             0.16
!   N2 loss                                                              0.23
!   NO loss                                                              0.77

!   Total N balance                                225.96              225.96
!   Balance                                                             0.000

!===============================================================================

*DSSAT Cropping System Model Ver. 4.7.5.008 -release  JAN 07, 2021 20:14:37

*RUN  27        : ERiMA DCC1                MZCER047 ETMZmelk    1
 MODEL          : MZCER047 - Maize
 EXPERIMENT     : ETMZmelk SN MELKSSAL
 DATA PATH      : C:\IRI\Python_Dash\ET_DSS_hist\TEST\
 TREATMENT  1   : ERiMA DCC1                MZCER047
  


!SOIL INORGANIC N BALANCE                         Initial               Final
!                                                Year/Doy            Year/Doy
!                                                2007/165            2007/302
!                                               (kg[N]/ha)          (kg[N]/ha)
! Soil N state variables:
!   Soil NO3                                        39.60               80.01
!   Soil NH4                                         2.43                1.39
!   Soil Urea                                        0.00                0.00
!   Soil N gases                                     0.00                0.14

! N additions:
!   Fertilizer N                                    60.00
!   Mineralized N                                  125.09

! N subtractions:
!   N immobilized                                                        0.00
!   N leached                                                            8.83
!   N loss to tile drainage                                              0.00
!   N Uptake From Soil                                                 135.27
!   NH3 loss                                                             0.00
!   N2O loss                                                             0.24
!   N2 loss                                                              0.52
!   NO loss                                                              0.71

!   Total N balance                                227.12              227.12
!   Balance                                                             0.000

!===============================================================================

*DSSAT Cropping System Model Ver. 4.7.5.008 -release  JAN 07, 2021 20:14:37

*RUN  28        : ERiMA DCC1                MZCER047 ETMZmelk    1
 MODEL          : MZCER047 - Maize
 EXPERIMENT     : ETMZmelk SN MELKSSAL
 DATA PATH      : C:\IRI\Python_Dash\ET_DSS_hist\TEST\
 TREATMENT  1   : ERiMA DCC1                MZCER047
  


!SOIL INORGANIC N BALANCE                         Initial               Final
!                                                Year/Doy            Year/Doy
!                                                2008/165            2008/299
!                                               (kg[N]/ha)          (kg[N]/ha)
! Soil N state variables:
!   Soil NO3                                        39.60               84.30
!   Soil NH4                                         2.43                1.34
!   Soil Urea                                        0.00                0.00
!   Soil N gases                                     0.00                0.13

! N additions:
!   Fertilizer N                                    60.00
!   Mineralized N                                  127.20

! N subtractions:
!   N immobilized                                                        0.00
!   N leached                                                            8.55
!   N loss to tile drainage                                              0.00
!   N Uptake From Soil                                                 133.01
!   NH3 loss                                                             0.00
!   N2O loss                                                             0.32
!   N2 loss                                                              0.71
!   NO loss                                                              0.86

!   Total N balance                                229.23              229.23
!   Balance                                                             0.000

!===============================================================================

*DSSAT Cropping System Model Ver. 4.7.5.008 -release  JAN 07, 2021 20:14:37

*RUN  29        : ERiMA DCC1                MZCER047 ETMZmelk    1
 MODEL          : MZCER047 - Maize
 EXPERIMENT     : ETMZmelk SN MELKSSAL
 DATA PATH      : C:\IRI\Python_Dash\ET_DSS_hist\TEST\
 TREATMENT  1   : ERiMA DCC1                MZCER047
  


!SOIL INORGANIC N BALANCE                         Initial               Final
!                                                Year/Doy            Year/Doy
!                                                2009/165            2009/296
!                                               (kg[N]/ha)          (kg[N]/ha)
! Soil N state variables:
!   Soil NO3                                        39.60               83.33
!   Soil NH4                                         2.43                1.63
!   Soil Urea                                        0.00                0.00
!   Soil N gases                                     0.00                0.11

! N additions:
!   Fertilizer N                                    60.00
!   Mineralized N                                  123.94

! N subtractions:
!   N immobilized                                                        0.00
!   N leached                                                            2.19
!   N loss to tile drainage                                              0.00
!   N Uptake From Soil                                                 137.66
!   NH3 loss                                                             0.00
!   N2O loss                                                             0.14
!   N2 loss                                                              0.08
!   NO loss                                                              0.82

!   Total N balance                                225.96              225.96
!   Balance                                                             0.000

!===============================================================================

*DSSAT Cropping System Model Ver. 4.7.5.008 -release  JAN 07, 2021 20:14:37

*RUN  30        : ERiMA DCC1                MZCER047 ETMZmelk    1
 MODEL          : MZCER047 - Maize
 EXPERIMENT     : ETMZmelk SN MELKSSAL
 DATA PATH      : C:\IRI\Python_Dash\ET_DSS_hist\TEST\
 TREATMENT  1   : ERiMA DCC1                MZCER047
  


!SOIL INORGANIC N BALANCE                         Initial               Final
!                                                Year/Doy            Year/Doy
!                                                2010/165            2010/285
!                                               (kg[N]/ha)          (kg[N]/ha)
! Soil N state variables:
!   Soil NO3                                        39.60               70.16
!   Soil NH4                                         2.43                1.41
!   Soil Urea                                        0.00                0.00
!   Soil N gases                                     0.00                0.16

! N additions:
!   Fertilizer N                                    60.00
!   Mineralized N                                  122.08

! N subtractions:
!   N immobilized                                                        0.00
!   N leached                                                            6.23
!   N loss to tile drainage                                              0.00
!   N Uptake From Soil                                                 145.28
!   NH3 loss                                                             0.00
!   N2O loss                                                             0.16
!   N2 loss                                                              0.12
!   NO loss                                                              0.60

!   Total N balance                                224.11              224.11
!   Balance                                                             0.000

!===============================================================================

*DSSAT Cropping System Model Ver. 4.7.5.008 -release  JAN 07, 2021 20:14:37

*RUN  31        : ERiMA DCC1                MZCER047 ETMZmelk    1
 MODEL          : MZCER047 - Maize
 EXPERIMENT     : ETMZmelk SN MELKSSAL
 DATA PATH      : C:\IRI\Python_Dash\ET_DSS_hist\TEST\
 TREATMENT  1   : ERiMA DCC1                MZCER047
  


!SOIL INORGANIC N BALANCE                         Initial               Final
!                                                Year/Doy            Year/Doy
!                                                2011/165            2011/319
!                                               (kg[N]/ha)          (kg[N]/ha)
! Soil N state variables:
!   Soil NO3                                        39.60               90.24
!   Soil NH4                                         2.43                1.45
!   Soil Urea                                        0.00                0.00
!   Soil N gases                                     0.00                0.10

! N additions:
!   Fertilizer N                                    60.00
!   Mineralized N                                  129.14

! N subtractions:
!   N immobilized                                                        0.00
!   N leached                                                           10.00
!   N loss to tile drainage                                              0.00
!   N Uptake From Soil                                                 127.93
!   NH3 loss                                                             0.00
!   N2O loss                                                             0.21
!   N2 loss                                                              0.39
!   NO loss                                                              0.85

!   Total N balance                                231.17              231.17
!   Balance                                                             0.000

!===============================================================================

*DSSAT Cropping System Model Ver. 4.7.5.008 -release  JAN 07, 2021 20:14:37

*RUN  32        : ERiMA DCC1                MZCER047 ETMZmelk    1
 MODEL          : MZCER047 - Maize
 EXPERIMENT     : ETMZmelk SN MELKSSAL
 DATA PATH      : C:\IRI\Python_Dash\ET_DSS_hist\TEST\
 TREATMENT  1   : ERiMA DCC1                MZCER047
  


!SOIL INORGANIC N BALANCE                         Initial               Final
!                                                Year/Doy            Year/Doy
!                                                2012/165            2012/312
!                                               (kg[N]/ha)          (kg[N]/ha)
! Soil N state variables:
!   Soil NO3                                        39.60               88.70
!   Soil NH4                                         2.43                1.44
!   Soil Urea                                        0.00                0.00
!   Soil N gases                                     0.00                0.11

! N additions:
!   Fertilizer N                                    60.00
!   Mineralized N                                  125.90

! N subtractions:
!   N immobilized                                                        0.00
!   N leached                                                            9.00
!   N loss to tile drainage                                              0.00
!   N Uptake From Soil                                                 126.60
!   NH3 loss                                                             0.00
!   N2O loss                                                             0.38
!   N2 loss                                                              0.70
!   NO loss                                                              1.01

!   Total N balance                                227.93              227.93
!   Balance                                                             0.000

!===============================================================================

*DSSAT Cropping System Model Ver. 4.7.5.008 -release  JAN 07, 2021 20:14:37

*RUN  33        : ERiMA DCC1                MZCER047 ETMZmelk    1
 MODEL          : MZCER047 - Maize
 EXPERIMENT     : ETMZmelk SN MELKSSAL
 DATA PATH      : C:\IRI\Python_Dash\ET_DSS_hist\TEST\
 TREATMENT  1   : ERiMA DCC1                MZCER047
  


!SOIL INORGANIC N BALANCE                         Initial               Final
!                                                Year/Doy            Year/Doy
!                                                2013/165            2013/305
!                                               (kg[N]/ha)          (kg[N]/ha)
! Soil N state variables:
!   Soil NO3                                        39.60               86.72
!   Soil NH4                                         2.43                1.44
!   Soil Urea                                        0.00                0.00
!   Soil N gases                                     0.00                0.11

! N additions:
!   Fertilizer N                                    60.00
!   Mineralized N                                  119.98

! N subtractions:
!   N immobilized                                                        0.00
!   N leached                                                            6.00
!   N loss to tile drainage                                              0.00
!   N Uptake From Soil                                                 126.32
!   NH3 loss                                                             0.00
!   N2O loss                                                             0.30
!   N2 loss                                                              0.39
!   NO loss                                                              0.73

!   Total N balance                                222.01              222.01
!   Balance                                                            -0.000

!===============================================================================

*DSSAT Cropping System Model Ver. 4.7.5.008 -release  JAN 07, 2021 20:14:37

*RUN  34        : ERiMA DCC1                MZCER047 ETMZmelk    1
 MODEL          : MZCER047 - Maize
 EXPERIMENT     : ETMZmelk SN MELKSSAL
 DATA PATH      : C:\IRI\Python_Dash\ET_DSS_hist\TEST\
 TREATMENT  1   : ERiMA DCC1                MZCER047
  


!SOIL INORGANIC N BALANCE                         Initial               Final
!                                                Year/Doy            Year/Doy
!                                                2014/165            2014/317
!                                               (kg[N]/ha)          (kg[N]/ha)
! Soil N state variables:
!   Soil NO3                                        39.60               82.41
!   Soil NH4                                         2.43                1.46
!   Soil Urea                                        0.00                0.00
!   Soil N gases                                     0.00                0.08

! N additions:
!   Fertilizer N                                    60.00
!   Mineralized N                                  128.86

! N subtractions:
!   N immobilized                                                        0.00
!   N leached                                                            0.35
!   N loss to tile drainage                                              0.00
!   N Uptake From Soil                                                 145.77
!   NH3 loss                                                             0.00
!   N2O loss                                                             0.16
!   N2 loss                                                              0.01
!   NO loss                                                              0.65

!   Total N balance                                230.89              230.89
!   Balance                                                             0.000

!===============================================================================

*DSSAT Cropping System Model Ver. 4.7.5.008 -release  JAN 07, 2021 20:14:52

*RUN  35        : ERiMA DCC1                MZCER047 ETMZawas    1
 MODEL          : MZCER047 - Maize
 EXPERIMENT     : ETMZawas SN MELKSSAL
 DATA PATH      : C:\IRI\Python_Dash\ET_DSS_hist\TEST\
 TREATMENT  1   : ERiMA DCC1                MZCER047
  


!SOIL INORGANIC N BALANCE                         Initial               Final
!                                                Year/Doy            Year/Doy
!                                                1981/165            1981/316
!                                               (kg[N]/ha)          (kg[N]/ha)
! Soil N state variables:
!   Soil NO3                                        39.60               88.80
!   Soil NH4                                         2.43                1.41
!   Soil Urea                                        0.00                0.00
!   Soil N gases                                     0.00                0.10

! N additions:
!   Fertilizer N                                    60.00
!   Mineralized N                                  130.04

! N subtractions:
!   N immobilized                                                        0.00
!   N leached                                                            2.68
!   N loss to tile drainage                                              0.00
!   N Uptake From Soil                                                 137.92
!   NH3 loss                                                             0.00
!   N2O loss                                                             0.19
!   N2 loss                                                              0.15
!   NO loss                                                              0.82

!   Total N balance                                232.07              232.07
!   Balance                                                            -0.000

!===============================================================================

*DSSAT Cropping System Model Ver. 4.7.5.008 -release  JAN 07, 2021 20:14:52

*RUN  36        : ERiMA DCC1                MZCER047 ETMZawas    1
 MODEL          : MZCER047 - Maize
 EXPERIMENT     : ETMZawas SN MELKSSAL
 DATA PATH      : C:\IRI\Python_Dash\ET_DSS_hist\TEST\
 TREATMENT  1   : ERiMA DCC1                MZCER047
  


!SOIL INORGANIC N BALANCE                         Initial               Final
!                                                Year/Doy            Year/Doy
!                                                1982/165            1982/317
!                                               (kg[N]/ha)          (kg[N]/ha)
! Soil N state variables:
!   Soil NO3                                        39.60               84.36
!   Soil NH4                                         2.43                1.65
!   Soil Urea                                        0.00                0.00
!   Soil N gases                                     0.00                0.11

! N additions:
!   Fertilizer N                                    60.00
!   Mineralized N                                  132.68

! N subtractions:
!   N immobilized                                                        0.00
!   N leached                                                            1.28
!   N loss to tile drainage                                              0.00
!   N Uptake From Soil                                                 146.42
!   NH3 loss                                                             0.00
!   N2O loss                                                             0.17
!   N2 loss                                                              0.04
!   NO loss                                                              0.69

!   Total N balance                                234.71              234.71
!   Balance                                                            -0.000

!===============================================================================

*DSSAT Cropping System Model Ver. 4.7.5.008 -release  JAN 07, 2021 20:14:52

*RUN  37        : ERiMA DCC1                MZCER047 ETMZawas    1
 MODEL          : MZCER047 - Maize
 EXPERIMENT     : ETMZawas SN MELKSSAL
 DATA PATH      : C:\IRI\Python_Dash\ET_DSS_hist\TEST\
 TREATMENT  1   : ERiMA DCC1                MZCER047
  


!SOIL INORGANIC N BALANCE                         Initial               Final
!                                                Year/Doy            Year/Doy
!                                                1983/165            1983/316
!                                               (kg[N]/ha)          (kg[N]/ha)
! Soil N state variables:
!   Soil NO3                                        39.60               80.34
!   Soil NH4                                         2.43                1.72
!   Soil Urea                                        0.00                0.00
!   Soil N gases                                     0.00                0.12

! N additions:
!   Fertilizer N                                    60.00
!   Mineralized N                                  138.21

! N subtractions:
!   N immobilized                                                        0.00
!   N leached                                                            0.00
!   N loss to tile drainage                                              0.00
!   N Uptake From Soil                                                 157.17
!   NH3 loss                                                             0.00
!   N2O loss                                                             0.17
!   N2 loss                                                              0.02
!   NO loss                                                              0.71

!   Total N balance                                240.24              240.24
!   Balance                                                            -0.000

!===============================================================================

*DSSAT Cropping System Model Ver. 4.7.5.008 -release  JAN 07, 2021 20:14:52

*RUN  38        : ERiMA DCC1                MZCER047 ETMZawas    1
 MODEL          : MZCER047 - Maize
 EXPERIMENT     : ETMZawas SN MELKSSAL
 DATA PATH      : C:\IRI\Python_Dash\ET_DSS_hist\TEST\
 TREATMENT  1   : ERiMA DCC1                MZCER047
  


!SOIL INORGANIC N BALANCE                         Initial               Final
!                                                Year/Doy            Year/Doy
!                                                1984/165            1984/300
!                                               (kg[N]/ha)          (kg[N]/ha)
! Soil N state variables:
!   Soil NO3                                        39.60               77.08
!   Soil NH4                                         2.43                1.55
!   Soil Urea                                        0.00                0.00
!   Soil N gases                                     0.00                0.09

! N additions:
!   Fertilizer N                                    60.00
!   Mineralized N                                  117.28

! N subtractions:
!   N immobilized                                                        0.00
!   N leached                                                            0.00
!   N loss to tile drainage                                              0.00
!   N Uptake From Soil                                                 139.79
!   NH3 loss                                                             0.00
!   N2O loss                                                             0.15
!   N2 loss                                                              0.02
!   NO loss                                                              0.62

!   Total N balance                                219.31              219.31
!   Balance                                                             0.000

!===============================================================================

*DSSAT Cropping System Model Ver. 4.7.5.008 -release  JAN 07, 2021 20:14:52

*RUN  39        : ERiMA DCC1                MZCER047 ETMZawas    1
 MODEL          : MZCER047 - Maize
 EXPERIMENT     : ETMZawas SN MELKSSAL
 DATA PATH      : C:\IRI\Python_Dash\ET_DSS_hist\TEST\
 TREATMENT  1   : ERiMA DCC1                MZCER047
  


!SOIL INORGANIC N BALANCE                         Initial               Final
!                                                Year/Doy            Year/Doy
!                                                1985/165            1985/310
!                                               (kg[N]/ha)          (kg[N]/ha)
! Soil N state variables:
!   Soil NO3                                        39.60               85.13
!   Soil NH4                                         2.43                1.41
!   Soil Urea                                        0.00                0.00
!   Soil N gases                                     0.00                0.08

! N additions:
!   Fertilizer N                                    60.00
!   Mineralized N                                  116.19

! N subtractions:
!   N immobilized                                                        0.00
!   N leached                                                            1.31
!   N loss to tile drainage                                              0.00
!   N Uptake From Soil                                                 128.81
!   NH3 loss                                                             0.00
!   N2O loss                                                             0.33
!   N2 loss                                                              0.38
!   NO loss                                                              0.77

!   Total N balance                                218.22              218.22
!   Balance                                                             0.000

!===============================================================================

*DSSAT Cropping System Model Ver. 4.7.5.008 -release  JAN 07, 2021 20:14:52

*RUN  40        : ERiMA DCC1                MZCER047 ETMZawas    1
 MODEL          : MZCER047 - Maize
 EXPERIMENT     : ETMZawas SN MELKSSAL
 DATA PATH      : C:\IRI\Python_Dash\ET_DSS_hist\TEST\
 TREATMENT  1   : ERiMA DCC1                MZCER047
  


!SOIL INORGANIC N BALANCE                         Initial               Final
!                                                Year/Doy            Year/Doy
!                                                1986/165            1986/313
!                                               (kg[N]/ha)          (kg[N]/ha)
! Soil N state variables:
!   Soil NO3                                        39.60               85.21
!   Soil NH4                                         2.43                1.42
!   Soil Urea                                        0.00                0.00
!   Soil N gases                                     0.00                0.09

! N additions:
!   Fertilizer N                                    60.00
!   Mineralized N                                  118.08

! N subtractions:
!   N immobilized                                                        0.00
!   N leached                                                            0.55
!   N loss to tile drainage                                              0.00
!   N Uptake From Soil                                                 132.02
!   NH3 loss                                                             0.00
!   N2O loss                                                             0.15
!   N2 loss                                                              0.00
!   NO loss                                                              0.66

!   Total N balance                                220.10              220.10
!   Balance                                                             0.000

!===============================================================================

*DSSAT Cropping System Model Ver. 4.7.5.008 -release  JAN 07, 2021 20:14:52

[...]

!===============================================================================

*DSSAT Cropping System Model Ver. 4.7.5.008 -release  JAN 07, 2021 20:14:52

*RUN  59        : ERiMA DCC1                MZCER047 ETMZawas    1
 MODEL          : MZCER047 - Maize
 EXPERIMENT     : ETMZawas SN MELKSSAL
 DATA PATH      : C:\IRI\Python_Dash\ET_DSS_hist\TEST\
 TREATMENT  1   : ERiMA DCC1                MZCER047
  


!SOIL INORGANIC N BALANCE                         Initial               Final
!                                                Year/Doy            Year/Doy
!                                                2005/165            2005/304
!                                               (kg[N]/ha)          (kg[N]/ha)
! Soil N state variables:
!   Soil NO3                                        39.60               80.01
!   Soil NH4                                         2.43                1.41
!   Soil Urea                                        0.00                0.00
!   Soil N gases                                     0.00                0.09

! N additions:
!   Fertilizer N                                    60.00
!   Mineralized N                                  123.77

! N subtractions:
!   N immobilized                                                        0.00
!   N leached                                                            0.87
!   N loss to tile drainage                                              0.00
!   N Uptake From Soil                                                 142.47
!   NH3 loss                                                             0.00
!   N2O loss                                                             0.17
!   N2 loss                                                              0.14
!   NO loss                                                              0.63

!   Total N balance                                225.80              225.80
!   Balance                                                            -0.000

!===============================================================================

*DSSAT Cropping System Model Ver. 4.7.5.008 -release  JAN 07, 2021 20:14:52

*RUN  60        : ERiMA DCC1                MZCER047 ETMZawas    1
 MODEL          : MZCER047 - Maize
 EXPERIMENT     : ETMZawas SN MELKSSAL
 DATA PATH      : C:\IRI\Python_Dash\ET_DSS_hist\TEST\
 TREATMENT  1   : ERiMA DCC1                MZCER047
  


!SOIL INORGANIC N BALANCE                         Initial               Final
!                                                Year/Doy            Year/Doy
!                                                2006/165            2006/304
!                                               (kg[N]/ha)          (kg[N]/ha)
! Soil N state variables:
!   Soil NO3                                        39.60               80.23
!   Soil NH4                                         2.43                1.80
!   Soil Urea                                        0.00                0.00
!   Soil N gases                                     0.00                0.11

! N additions:
!   Fertilizer N                                    60.00
!   Mineralized N                                  131.03

! N subtractions:
!   N immobilized                                                        0.00
!   N leached                                                            0.84
!   N loss to tile drainage                                              0.00
!   N Uptake From Soil                                                 149.33
!   NH3 loss                                                             0.00
!   N2O loss                                                             0.16
!   N2 loss                                                              0.02
!   NO loss                                                              0.58

!   Total N balance                                233.06              233.06
!   Balance                                                            -0.000

!===============================================================================

*DSSAT Cropping System Model Ver. 4.7.5.008 -release  JAN 07, 2021 20:14:52

*RUN  61        : ERiMA DCC1                MZCER047 ETMZawas    1
 MODEL          : MZCER047 - Maize
 EXPERIMENT     : ETMZawas SN MELKSSAL
 DATA PATH      : C:\IRI\Python_Dash\ET_DSS_hist\TEST\
 TREATMENT  1   : ERiMA DCC1                MZCER047
  


!SOIL INORGANIC N BALANCE                         Initial               Final
!                                                Year/Doy            Year/Doy
!                                                2007/165            2007/313
!                                               (kg[N]/ha)          (kg[N]/ha)
! Soil N state variables:
!   Soil NO3                                        39.60               84.67
!   Soil NH4                                         2.43                1.42
!   Soil Urea                                        0.00                0.00
!   Soil N gases                                     0.00                0.11

! N additions:
!   Fertilizer N                                    60.00
!   Mineralized N                                  134.91

! N subtractions:
!   N immobilized                                                        0.00
!   N leached                                                            4.09
!   N loss to tile drainage                                              0.00
!   N Uptake From Soil                                                 144.87
!   NH3 loss                                                             0.00
!   N2O loss                                                             0.35
!   N2 loss                                                              0.54
!   NO loss                                                              0.88

!   Total N balance                                236.94              236.94
!   Balance                                                            -0.000

!===============================================================================

*DSSAT Cropping System Model Ver. 4.7.5.008 -release  JAN 07, 2021 20:14:52

*RUN  62        : ERiMA DCC1                MZCER047 ETMZawas    1
 MODEL          : MZCER047 - Maize
 EXPERIMENT     : ETMZawas SN MELKSSAL
 DATA PATH      : C:\IRI\Python_Dash\ET_DSS_hist\TEST\
 TREATMENT  1   : ERiMA DCC1                MZCER047
  


!SOIL INORGANIC N BALANCE                         Initial               Final
!                                                Year/Doy            Year/Doy
!                                                2008/165            2008/309
!                                               (kg[N]/ha)          (kg[N]/ha)
! Soil N state variables:
!   Soil NO3                                        39.60               87.42
!   Soil NH4                                         2.43                2.08
!   Soil Urea                                        0.00                0.00
!   Soil N gases                                     0.00                0.12

! N additions:
!   Fertilizer N                                    60.00
!   Mineralized N                                  129.89

! N subtractions:
!   N immobilized                                                        0.00
!   N leached                                                            1.58
!   N loss to tile drainage                                              0.00
!   N Uptake From Soil                                                 138.50
!   NH3 loss                                                             0.00
!   N2O loss                                                             0.39
!   N2 loss                                                              0.73
!   NO loss                                                              1.10

!   Total N balance                                231.91              231.91
!   Balance                                                            -0.000

!===============================================================================

*DSSAT Cropping System Model Ver. 4.7.5.008 -release  JAN 07, 2021 20:14:52

*RUN  63        : ERiMA DCC1                MZCER047 ETMZawas    1
 MODEL          : MZCER047 - Maize
 EXPERIMENT     : ETMZawas SN MELKSSAL
 DATA PATH      : C:\IRI\Python_Dash\ET_DSS_hist\TEST\
 TREATMENT  1   : ERiMA DCC1                MZCER047
  


!SOIL INORGANIC N BALANCE                         Initial               Final
!                                                Year/Doy            Year/Doy
!                                                2009/165            2009/300
!                                               (kg[N]/ha)          (kg[N]/ha)
! Soil N state variables:
!   Soil NO3                                        39.60               77.26
!   Soil NH4                                         2.43                1.62
!   Soil Urea                                        0.00                0.00
!   Soil N gases                                     0.00                0.09

! N additions:
!   Fertilizer N                                    60.00
!   Mineralized N                                  116.64

! N subtractions:
!   N immobilized                                                        0.00
!   N leached                                                            0.00
!   N loss to tile drainage                                              0.00
!   N Uptake From Soil                                                 138.82
!   NH3 loss                                                             0.00
!   N2O loss                                                             0.14
!   N2 loss                                                              0.00
!   NO loss                                                              0.74

!   Total N balance                                218.67              218.67
!   Balance                                                             0.000

!===============================================================================

*DSSAT Cropping System Model Ver. 4.7.5.008 -release  JAN 07, 2021 20:14:52

*RUN  64        : ERiMA DCC1                MZCER047 ETMZawas    1
 MODEL          : MZCER047 - Maize
 EXPERIMENT     : ETMZawas SN MELKSSAL
 DATA PATH      : C:\IRI\Python_Dash\ET_DSS_hist\TEST\
 TREATMENT  1   : ERiMA DCC1                MZCER047
  


!SOIL INORGANIC N BALANCE                         Initial               Final
!                                                Year/Doy            Year/Doy
!                                                2010/165            2010/306
!                                               (kg[N]/ha)          (kg[N]/ha)
! Soil N state variables:
!   Soil NO3                                        39.60               77.55
!   Soil NH4                                         2.43                1.47
!   Soil Urea                                        0.00                0.00
!   Soil N gases                                     0.00                0.12

! N additions:
!   Fertilizer N                                    60.00
!   Mineralized N                                  130.84

! N subtractions:
!   N immobilized                                                        0.00
!   N leached                                                            2.52
!   N loss to tile drainage                                              0.00
!   N Uptake From Soil                                                 150.38
!   NH3 loss                                                             0.00
!   N2O loss                                                             0.16
!   N2 loss                                                              0.03
!   NO loss                                                              0.64

!   Total N balance                                232.87              232.87
!   Balance                                                             0.000

!===============================================================================

*DSSAT Cropping System Model Ver. 4.7.5.008 -release  JAN 07, 2021 20:14:52

*RUN  65        : ERiMA DCC1                MZCER047 ETMZawas    1
 MODEL          : MZCER047 - Maize
 EXPERIMENT     : ETMZawas SN MELKSSAL
 DATA PATH      : C:\IRI\Python_Dash\ET_DSS_hist\TEST\
 TREATMENT  1   : ERiMA DCC1                MZCER047
  


!SOIL INORGANIC N BALANCE                         Initial               Final
!                                                Year/Doy            Year/Doy
!                                                2011/165            2011/305
!                                               (kg[N]/ha)          (kg[N]/ha)
! Soil N state variables:
!   Soil NO3                                        39.60               79.48
!   Soil NH4                                         2.43                1.40
!   Soil Urea                                        0.00                0.00
!   Soil N gases                                     0.00                0.11

! N additions:
!   Fertilizer N                                    60.00
!   Mineralized N                                  130.71

! N subtractions:
!   N immobilized                                                        0.00
!   N leached                                                            2.18
!   N loss to tile drainage                                              0.00
!   N Uptake From Soil                                                 148.57
!   NH3 loss                                                             0.00
!   N2O loss                                                             0.16
!   N2 loss                                                              0.04
!   NO loss                                                              0.81

!   Total N balance                                232.73              232.73
!   Balance                                                            -0.000

!===============================================================================

*DSSAT Cropping System Model Ver. 4.7.5.008 -release  JAN 07, 2021 20:14:52

*RUN  66        : ERiMA DCC1                MZCER047 ETMZawas    1
 MODEL          : MZCER047 - Maize
 EXPERIMENT     : ETMZawas SN MELKSSAL
 DATA PATH      : C:\IRI\Python_Dash\ET_DSS_hist\TEST\
 TREATMENT  1   : ERiMA DCC1                MZCER047
  


!SOIL INORGANIC N BALANCE                         Initial               Final
!                                                Year/Doy            Year/Doy
!                                                2012/165            2012/303
!                                               (kg[N]/ha)          (kg[N]/ha)
! Soil N state variables:
!   Soil NO3                                        39.60               79.83
!   Soil NH4                                         2.43                1.42
!   Soil Urea                                        0.00                0.00
!   Soil N gases                                     0.00                0.09

! N additions:
!   Fertilizer N                                    60.00
!   Mineralized N                                  128.45

! N subtractions:
!   N immobilized                                                        0.00
!   N leached                                                            1.11
!   N loss to tile drainage                                              0.00
!   N Uptake From Soil                                                 146.49
!   NH3 loss                                                             0.00
!   N2O loss                                                             0.34
!   N2 loss                                                              0.37
!   NO loss                                                              0.83

!   Total N balance                                230.48              230.48
!   Balance                                                            -0.000

!===============================================================================

*DSSAT Cropping System Model Ver. 4.7.5.008 -release  JAN 07, 2021 20:14:52

*RUN  67        : ERiMA DCC1                MZCER047 ETMZawas    1
 MODEL          : MZCER047 - Maize
 EXPERIMENT     : ETMZawas SN MELKSSAL
 DATA PATH      : C:\IRI\Python_Dash\ET_DSS_hist\TEST\
 TREATMENT  1   : ERiMA DCC1                MZCER047
  


!SOIL INORGANIC N BALANCE                         Initial               Final
!                                                Year/Doy            Year/Doy
!                                                2013/165            2013/304
!                                               (kg[N]/ha)          (kg[N]/ha)
! Soil N state variables:
!   Soil NO3                                        39.60               81.14
!   Soil NH4                                         2.43                1.47
!   Soil Urea                                        0.00                0.00
!   Soil N gases                                     0.00                0.11

! N additions:
!   Fertilizer N                                    60.00
!   Mineralized N                                  127.89

! N subtractions:
!   N immobilized                                                        0.00
!   N leached                                                            2.17
!   N loss to tile drainage                                              0.00
!   N Uptake From Soil                                                 143.88
!   NH3 loss                                                             0.00
!   N2O loss                                                             0.24
!   N2 loss                                                              0.24
!   NO loss                                                              0.66

!   Total N balance                                229.92              229.92
!   Balance                                                            -0.000

!===============================================================================

*DSSAT Cropping System Model Ver. 4.7.5.008 -release  JAN 07, 2021 20:14:52

*RUN  68        : ERiMA DCC1                MZCER047 ETMZawas    1
 MODEL          : MZCER047 - Maize
 EXPERIMENT     : ETMZawas SN MELKSSAL
 DATA PATH      : C:\IRI\Python_Dash\ET_DSS_hist\TEST\
 TREATMENT  1   : ERiMA DCC1                MZCER047
  


!SOIL INORGANIC N BALANCE                         Initial               Final
!                                                Year/Doy            Year/Doy
!                                                2014/165            2014/297
!                                               (kg[N]/ha)          (kg[N]/ha)
! Soil N state variables:
!   Soil NO3                                        39.60               73.57
!   Soil NH4                                         2.43                2.00
!   Soil Urea                                        0.00                0.00
!   Soil N gases                                     0.00                0.13

! N additions:
!   Fertilizer N                                    60.00
!   Mineralized N                                  127.61

! N subtractions:
!   N immobilized                                                        0.00
!   N leached                                                            3.61
!   N loss to tile drainage                                              0.00
!   N Uptake From Soil                                                 149.44
!   NH3 loss                                                             0.00
!   N2O loss                                                             0.15
!   N2 loss                                                              0.01
!   NO loss                                                              0.74

!   Total N balance                                229.63              229.63
!   Balance                                                            -0.000
