*Soil Organic Matter daily output file

*DSSAT Cropping System Model Ver. 4.7.5.008 -release  JAN 07, 2021 20:14:37

*RUN   1        : ERiMA DCC1                MZCER047 ETMZmelk    1
 MODEL          : MZCER047 - Maize
 EXPERIMENT     : ETMZmelk SN MELKSSAL
 DATA PATH      : C:\IRI\Python_Dash\ET_DSS_hist\TEST\
 TREATMENT  1   : ERiMA DCC1                MZCER047
  
@YEAR DOY   DAS    OMAC    SCDD    SOCD    SC0D    SCTD   SOMCT    LCTD    ONAC    SNDD    SOND    SN0D    SNTD   SOMNT    LNTD
 1981 164     0       0   15750  272505       0  272505  272505     0.0    0.00  1454.1 18903.2    0.00 18903.2 18903.2    0.00
 1981 165     1       0   15749  272489       0  272489  272489     0.0    0.00  1454.1 18902.1    0.00 18902.1 18902.1    0.00
 1981 166     2       0   15748  272474       0  272474  272474     0.0    0.00  1454.0 18901.0    0.00 18901.0 18901.0    0.00
 1981 167     3       0   15747  272458       0  272458  272458     0.0    0.00  1453.9 18899.9    0.00 18899.9 18899.9    0.00
 1981 168     4       0   15746  272443       0  272443  272443     0.0    0.00  1453.8 18898.8    0.00 18898.8 18898.8    0.00
 1981 169     5       0   15745  272427       0  272427  272427     0.0    0.00  1453.7 18897.7    0.00 18897.7 18897.7    0.00
 1981 170     6       0   15744  272411       0  272411  272411     0.0    0.00  1453.6 18896.6    0.00 18896.6 18896.6    0.00
 1981 171     7       0   15743  272395       0  272395  272395     0.0    0.00  1453.5 18895.5    0.00 18895.5 18895.5    0.00
 1981 172     8       0   15742  272380       0  272380  272380     0.0    0.00  1453.4 18894.4    0.00 18894.4 18894.4    0.00
 1981 173     9       0   15741  272364       0  272364  272364     0.0    0.00  1453.3 18893.3    0.00 18893.3 18893.3    0.00
 1981 174    10       0   15740  272349       0  272349  272349     0.0    0.00  1453.2 18892.3    0.00 18892.3 18892.3    0.00
 1981 175    11       0   15739  272334       0  272334  272334     0.0    0.00  1453.1 18891.2    0.00 18891.2 18891.2    0.00
 1981 176    12       0   15738  272318       0  272318  272318     0.0    0.00  1453.0 18890.1    0.00 18890.1 18890.1    0.00
 1981 177    13       0   15737  272303       0  272303  272303     0.0    0.00  1453.0 18889.1    0.00 18889.1 18889.1    0.00
 1981 178    14       0   15736  272287       0  272287  272287     0.0    0.00  1452.9 18888.0    0.00 18888.0 18888.0    0.00
 1981 179    15       0   15735  272272       0  272272  272272     0.0    0.00  1452.8 18886.9    0.00 18886.9 18886.9    0.00
 1981 180    16       0   15734  272258       0  272258  272258     0.1    0.00  1452.7 18885.9    0.00 18885.9 18885.9    0.00
 1981 181    17       0   15734  272243       0  272243  272243     0.1    0.00  1452.6 18884.9    0.00 18884.9 18884.9    0.00
 1981 182    18       0   15733  272228       0  272228  272228     0.2    0.00  1452.6 18883.9    0.00 18883.9 18883.9    0.01
 1981 183    19       0   15732  272214       0  272214  272214     0.2    0.00  1452.5 18882.9    0.00 18882.9 18882.9    0.01
 1981 184    20       0   15731  272200       0  272200  272200     0.3    0.00  1452.4 18881.9    0.00 18881.9 18881.9    0.01
 1981 185    21       0   15731  272186       0  272186  272186     0.4    0.00  1452.4 18881.0    0.00 18881.0 18881.0    0.01
 1981 186    22       0   15730  272173       0  272173  272172     0.4    0.00  1452.3 18880.0    0.00 18880.0 18880.0    0.02
 1981 187    23       0   15729  272159       0  272159  272158     0.5    0.00  1452.2 18879.1    0.00 18879.1 18879.0    0.02
 1981 188    24       0   15728  272145       0  272145  272145     0.7    0.00  1452.1 18878.1    0.00 18878.1 18878.1    0.02
 1981 189    25       0   15728  272131       0  272131  272130     0.8    0.00  1452.1 18877.2    0.00 18877.2 18877.1    0.03
 1981 190    26       0   15727  272118       0  272118  272117     1.0    0.00  1452.0 18876.2    0.00 18876.2 18876.2    0.04
 1981 191    27       0   15726  272104       0  272104  272103     1.2    0.00  1452.0 18875.3    0.00 18875.3 18875.3    0.04
 1981 192    28       0   15726  272091       0  272091  272090     1.5    0.00  1451.9 18874.4    0.00 18874.4 18874.3    0.05
 1981 193    29       0   15725  272078       0  272078  272076     1.7    0.00  1451.8 18873.4    0.00 18873.4 18873.4    0.06
 1981 194    30       0   15724  272065       0  272065  272063     2.0    0.00  1451.7 18872.5    0.00 18872.5 18872.4    0.07
 1981 195    31       0   15723  272052       0  272052  272049     2.3    0.00  1451.7 18871.6    0.00 18871.6 18871.5    0.08
 1981 196    32       0   15722  272038       0  272038  272036     2.7    0.00  1451.6 18870.6    0.00 18870.6 18870.6    0.09
 1981 197    33       0   15721  272025       0  272025  272022     3.1    0.00  1451.5 18869.7    0.00 18869.7 18869.6    0.10
 1981 198    34       0   15721  272011       0  272011  272008     3.5    0.00  1451.4 18868.8    0.00 18868.8 18868.6    0.12
 1981 199    35       0   15720  271998       0  271998  271994     4.0    0.00  1451.3 18867.8    0.00 18867.8 18867.7    0.13
 1981 200    36       0   15719  271985       0  271985  271980     4.5    0.00  1451.3 18866.8    0.00 18866.8 18866.7    0.15
 1981 201    37       0   15718  271971       0  271971  271966     5.0    0.00  1451.2 18865.9    0.00 18865.9 18865.7    0.16
 1981 202    38       0   15717  271958       0  271958  271953     5.5    0.00  1451.1 18865.0    0.00 18865.0 18864.8    0.18
 1981 203    39       0   15716  271945       0  271945  271939     6.1    0.00  1451.0 18864.0    0.00 18864.0 18863.8    0.20
 1981 204    40       0   15716  271932       0  271932  271926     6.7    0.00  1451.0 18863.1    0.00 18863.1 18862.9    0.22
 1981 205    41       0   15715  271920       0  271920  271912     7.3    0.00  1450.9 18862.2    0.00 18862.2 18862.0    0.24
 1981 206    42       0   15714  271907       0  271907  271899     7.9    0.00  1450.8 18861.3    0.00 18861.3 18861.0    0.26
 1981 207    43       0   15713  271894       0  271894  271885     8.7    0.00  1450.7 18860.4    0.00 18860.4 18860.1    0.28
 1981 208    44       0   15712  271882       0  271882  271872     9.4    0.00  1450.7 18859.5    0.00 18859.5 18859.2    0.31
 1981 209    45       0   15712  271869       0  271869  271859    10.1    0.00  1450.6 18858.6    0.00 18858.6 18858.3    0.33
 1981 210    46       0   15711  271857       0  271857  271846    10.8    0.00  1450.5 18857.7    0.00 18857.7 18857.4    0.35
 1981 211    47       0   15710  271845       0  271845  271833    11.5    0.00  1450.5 18856.9    0.00 18856.9 18856.5    0.38
 1981 212    48       0   15709  271833       0  271833  271821    12.2    0.00  1450.4 18856.0    0.00 18856.0 18855.6    0.40
 1981 213    49       0   15709  271821       0  271821  271808    12.8    0.00  1450.3 18855.2    0.00 18855.2 18854.7    0.42
 1981 214    50       0   15708  271808       0  271808  271795    13.5    0.00  1450.2 18854.3    0.00 18854.3 18853.8    0.45
 1981 215    51       0   15707  271796       0  271796  271782    14.2    0.00  1450.2 18853.4    0.00 18853.4 18852.9    0.47
 1981 216    52       0   15706  271784       0  271784  271769    14.8    0.00  1450.1 18852.5    0.00 18852.5 18852.0    0.49
 1981 217    53       0   15705  271771       0  271771  271756    15.4    0.00  1450.0 18851.6    0.00 18851.6 18851.1    0.52
 1981 218    54       0   15705  271758       0  271758  271742    16.1    0.00  1450.0 18850.7    0.00 18850.7 18850.2    0.54
 1981 219    55       0   15704  271746       0  271746  271729    16.8    0.00  1449.9 18849.8    0.00 18849.8 18849.2    0.56
 1981 220    56       0   15703  271733       0  271733  271715    17.4    0.00  1449.8 18848.9    0.00 18848.9 18848.3    0.59
 1981 221    57       0   15702  271720       0  271720  271702    18.0    0.00  1449.7 18848.0    0.00 18848.0 18847.4    0.61
 1981 222    58       0   15701  271707       0  271707  271688    18.8    0.00  1449.7 18847.1    0.00 18847.1 18846.4    0.63
 1981 223    59       0   15701  271694       0  271694  271675    19.7    0.00  1449.6 18846.2    0.00 18846.2 18845.5    0.66
 1981 224    60       0   15700  271682       0  271682  271661    20.6    0.00  1449.5 18845.2    0.00 18845.2 18844.6    0.68
 1981 225    61       0   15699  271669       0  271669  271648    21.3    0.00  1449.5 18844.3    0.00 18844.3 18843.6    0.71
 1981 226    62       0   15698  271656       0  271656  271634    22.0    0.00  1449.4 18843.4    0.00 18843.4 18842.7    0.73
 1981 227    63       0   15698  271644       0  271644  271621    22.8    0.00  1449.3 18842.5    0.00 18842.5 18841.8    0.75
 1981 228    64       0   15697  271631       0  271631  271608    23.5    0.00  1449.2 18841.6    0.00 18841.6 18840.8    0.77
 1981 229    65       0   15696  271619       0  271619  271595    24.4    0.00  1449.2 18840.7    0.00 18840.7 18839.9    0.79
 1981 230    66       0   15695  271606       0  271606  271581    25.2    0.00  1449.1 18839.8    0.00 18839.8 18839.0    0.82
 1981 231    67       0   15694  271594       0  271594  271568    26.0    0.00  1449.0 18838.9    0.00 18838.9 18838.1    0.84
 1981 232    68       0   15694  271581       0  271581  271554    26.9    0.00  1448.9 18838.0    0.00 18838.0 18837.1    0.86
 1981 233    69       0   15693  271568       0  271568  271540    27.9    0.00  1448.9 18837.0    0.00 18837.0 18836.1    0.88
 1981 234    70       0   15692  271555       0  271555  271526    28.9    0.00  1448.8 18836.1    0.00 18836.1 18835.2    0.90
 1981 235    71       0   15691  271542       0  271542  271512    30.0    0.00  1448.7 18835.1    0.00 18835.1 18834.2    0.93
 1981 236    72       0   15690  271529       0  271529  271498    30.9    0.00  1448.6 18834.2    0.00 18834.2 18833.3    0.95
 1981 237    73       0   15690  271517       0  271517  271485    31.9    0.00  1448.6 18833.3    0.00 18833.3 18832.3    0.98
 1981 238    74       0   15689  271505       0  271505  271472    33.0    0.00  1448.5 18832.4    0.00 18832.4 18831.4    1.00
 1981 239    75       0   15688  271492       0  271492  271459    34.0    0.00  1448.4 18831.5    0.00 18831.5 18830.5    1.03
 1981 240    76       0   15687  271480       0  271480  271445    34.9    0.00  1448.4 18830.6    0.00 18830.6 18829.6    1.06
 1981 241    77       0   15686  271467       0  271467  271432    35.8    0.00  1448.3 18829.7    0.00 18829.7 18828.6    1.08
 1981 242    78       0   15686  271455       0  271455  271418    36.8    0.00  1448.2 18828.8    0.00 18828.8 18827.7    1.11
 1981 243    79       0   15685  271442       0  271442  271404    37.7    0.00  1448.1 18827.9    0.00 18827.9 18826.7    1.14
 1981 244    80       0   15684  271429       0  271429  271390    38.5    0.00  1448.1 18826.9    0.00 18826.9 18825.8    1.16
 1981 245    81       0   15683  271416       0  271416  271377    39.3    0.00  1448.0 18826.0    0.00 18826.0 18824.8    1.19
 1981 246    82       0   15682  271403       0  271403  271363    40.3    0.00  1447.9 18825.1    0.00 18825.1 18823.9    1.22
 1981 247    83       0   15682  271391       0  271391  271350    41.3    0.00  1447.8 18824.2    0.00 18824.2 18822.9    1.25
 1981 248    84       0   15681  271378       0  271378  271336    42.2    0.00  1447.8 18823.3    0.00 18823.3 18822.0    1.27
 1981 249    85       0   15680  271366       0  271366  271322    43.1    0.00  1447.7 18822.4    0.00 18822.4 18821.1    1.30
 1981 250    86       0   15679  271353       0  271353  271309    43.9    0.00  1447.6 18821.4    0.00 18821.4 18820.1    1.33
 1981 251    87       0   15678  271340       0  271340  271295    44.9    0.00  1447.5 18820.5    0.00 18820.5 18819.2    1.36
 1981 252    88       0   15678  271327       0  271327  271281    45.7    0.00  1447.5 18819.6    0.00 18819.6 18818.2    1.39
 1981 253    89       0   15677  271314       0  271314  271267    46.7    0.00  1447.4 18818.7    0.00 18818.7 18817.2    1.42
 1981 254    90       0   15676  271301       0  271301  271253    47.8    0.00  1447.3 18817.7    0.00 18817.7 18816.3    1.45
 1981 255    91       0   15675  271288       0  271288  271239    48.9    0.00  1447.2 18816.8    0.00 18816.8 18815.3    1.48
 1981 256    92       0   15674  271276       0  271276  271225    50.1    0.00  1447.2 18815.8    0.00 18815.8 18814.3    1.51
 1981 257    93       0   15673  271263       0  271263  271212    51.4    0.00  1447.1 18814.9    0.00 18814.9 18813.4    1.55
 1981 258    94       0   15673  271252       0  271252  271199    52.8    0.00  1447.0 18814.1    0.00 18814.1 18812.5    1.58
 1981 259    95       0   15672  271240       0  271240  271186    54.2    0.00  1446.9 18813.2    0.00 18813.2 18811.6    1.62
 1981 260    96       0   15671  271228       0  271228  271173    55.6    0.00  1446.9 18812.3    0.00 18812.3 18810.7    1.66
 1981 261    97       0   15670  271216       0  271216  271159    56.9    0.00  1446.8 18811.5    0.00 18811.5 18809.8    1.70
 1981 262    98       0   15670  271205       0  271205  271146    58.2    0.00  1446.7 18810.6    0.00 18810.6 18808.9    1.74
 1981 263    99       0   15669  271193       0  271193  271133    59.7    0.00  1446.7 18809.7    0.00 18809.7 18807.9    1.78
 1981 264   100       0   15668  271180       0  271180  271119    60.9    0.00  1446.6 18808.8    0.00 18808.8 18807.0    1.81
 1981 265   101       0   15667  271168       0  271168  271106    62.1    0.00  1446.5 18807.9    0.00 18807.9 18806.0    1.85
 1981 266   102       0   15666  271155       0  271155  271092    63.4    0.00  1446.4 18807.0    0.00 18807.0 18805.1    1.89
 1981 267   103       0   15666  271143       0  271143  271078    64.6    0.00  1446.4 18806.1    0.00 18806.1 18804.1    1.93
 1981 268   104       0   15665  271130       0  271130  271064    66.0    0.00  1446.3 18805.2    0.00 18805.2 18803.2    1.97
 1981 269   105       0   15664  271118       0  271118  271050    67.4    0.00  1446.2 18804.2    0.00 18804.2 18802.2    2.01
 1981 270   106       0   15663  271106       0  271106  271037    69.0    0.00  1446.1 18803.3    0.00 18803.3 18801.3    2.06
 1981 271   107       0   15662  271094       0  271094  271023    70.5    0.00  1446.1 18802.4    0.00 18802.4 18800.3    2.10
 1981 272   108       0   15662  271082       0  271082  271010    72.1    0.00  1446.0 18801.5    0.00 18801.5 18799.4    2.15
 1981 273   109       0   15661  271070       0  271070  270996    74.0    0.00  1445.9 18800.7    0.00 18800.7 18798.5    2.20
 1981 274   110       0   15660  271059       0  271059  270983    75.9    0.00  1445.9 18799.8    0.00 18799.8 18797.6    2.25
 1981 275   111       0   15659  271048       0  271048  270970    78.1    0.00  1445.8 18799.0    0.00 18799.0 18796.7    2.30
 1981 276   112       0   15659  271037       0  271037  270957    80.2    0.00  1445.7 18798.1    0.00 18798.1 18795.8    2.35
 1981 277   113       0   15658  271026       0  271026  270944    82.1    0.00  1445.6 18797.2    0.00 18797.2 18794.8    2.40
 1981 278   114       0   15657  271014       0  271014  270930    84.1    0.00  1445.6 18796.4    0.00 18796.4 18793.9    2.46
 1981 279   115       0   15656  271003       0  271003  270917    86.0    0.00  1445.5 18795.5    0.00 18795.5 18793.0    2.51
 1981 280   116       0   15655  270991       0  270991  270903    88.0    0.00  1445.4 18794.6    0.00 18794.6 18792.0    2.56
 1981 281   117       0   15654  270979       0  270979  270889    90.4    0.00  1445.3 18793.7    0.00 18793.7 18791.1    2.62
 1981 282   118       0   15654  270968       0  270968  270875    92.9    0.00  1445.3 18792.8    0.00 18792.8 18790.1    2.68
 1981 283   119       0   15653  270958       0  270958  270862    95.8    0.00  1445.2 18791.9    0.00 18791.9 18789.2    2.74
 1981 284   120       0   15652  270948       0  270948  270849    98.9    0.00  1445.1 18791.1    0.00 18791.1 18788.3    2.80
 1981 285   121       0   15652  270939       0  270939  270836   102.1    0.00  1445.1 18790.3    0.00 18790.3 18787.5    2.87
 1981 286   122       0   15651  270930       0  270930  270824   105.6    0.00  1445.0 18789.6    0.00 18789.6 18786.7    2.94
 1981 287   123       0   15651  270922       0  270922  270813   109.2    0.00  1445.0 18788.9    0.00 18788.9 18785.9    3.02
 1981 288   124       0   15650  270915       0  270915  270802   113.1    0.00  1444.9 18788.2    0.00 18788.2 18785.1    3.09
 1981 289   125       0   15650  270908       0  270908  270790   117.1    0.00  1444.9 18787.5    0.00 18787.5 18784.4    3.17
 1981 290   126       0   15649  270901       0  270901  270779   121.3    0.00  1444.9 18786.9    0.00 18786.9 18783.6    3.24
 1981 291   127       0   15649  270894       0  270894  270769   125.7    0.00  1444.8 18786.2    0.00 18786.2 18782.9    3.32
 1981 292   128       0   15649  270888       0  270888  270758   130.3    0.00  1444.8 18785.6    0.00 18785.6 18782.2    3.40
 1981 293   129       0   15648  270883       0  270883  270748   135.0    0.00  1444.8 18785.0    0.00 18785.0 18781.5    3.48
 1981 294   130       0   15648  270877       0  270877  270738   139.7    0.00  1444.8 18784.4    0.00 18784.4 18780.9    3.56
 1981 295   131       0   15648  270872       0  270872  270728   144.5    0.00  1444.7 18783.8    0.00 18783.8 18780.2    3.65
 1981 296   132       0   15648  270867       0  270867  270718   149.3    0.00  1444.7 18783.3    0.00 18783.3 18779.5    3.73
 1981 297   133       0   15647  270862       0  270862  270708   154.1    0.00  1444.7 18782.7    0.00 18782.7 18778.9    3.81
 1981 298   134       0   15647  270857       0  270857  270698   159.0    0.00  1444.7 18782.1    0.00 18782.1 18778.2    3.89
 1981 299   135       0   15647  270852       0  270852  270688   163.8    0.00  1444.7 18781.5    0.00 18781.5 18777.6    3.97
 1981 300   136       0   15647  270847       0  270847  270678   168.6    0.00  1444.6 18781.0    0.00 18781.0 18776.9    4.06
 1981 301   137       0   15647  270841       0  270841  270668   173.4    0.00  1444.6 18780.4    0.00 18780.4 18776.3    4.14
 1981 302   138       0   15646  270831       0  270831  270658   173.4    0.00  1444.6 18779.8    0.00 18779.8 18775.6    4.14
 1981 303   139       0   15646  270821       0  270821  270648   173.4    0.00  1444.6 18779.1    0.00 18779.1 18775.0    4.14
 1981 304   140       0   15646  270811       0  270811  270638   173.4    0.00  1444.6 18778.4    0.00 18778.4 18774.3    4.14
 1981 305   141       0   15646  270801       0  270801  270628   173.3    0.00  1444.5 18777.8    0.00 18777.8 18773.6    4.14

*DSSAT Cropping System Model Ver. 4.7.5.008 -release  JAN 07, 2021 20:14:37

*RUN   2        : ERiMA DCC1                MZCER047 ETMZmelk    1
 MODEL          : MZCER047 - Maize
 EXPERIMENT     : ETMZmelk SN MELKSSAL
 DATA PATH      : C:\IRI\Python_Dash\ET_DSS_hist\TEST\
 TREATMENT  1   : ERiMA DCC1                MZCER047
  
@YEAR DOY   DAS    OMAC    SCDD    SOCD    SC0D    SCTD   SOMCT    LCTD    ONAC    SNDD    SOND    SN0D    SNTD   SOMNT    LNTD
 1982 164     0       0   15750  272505       0  272505  272505     0.0    0.00  1454.1 18903.2    0.00 18903.2 18903.2    0.00
 1982 165     1       0   15749  272489       0  272489  272489     0.0    0.00  1454.1 18902.1    0.00 18902.1 18902.1    0.00
 1982 166     2       0   15748  272473       0  272473  272473     0.0    0.00  1454.0 18900.9    0.00 18900.9 18900.9    0.00
 1982 167     3       0   15747  272458       0  272458  272458     0.0    0.00  1453.9 18899.9    0.00 18899.9 18899.9    0.00
 1982 168     4       0   15746  272443       0  272443  272443     0.0    0.00  1453.8 18898.8    0.00 18898.8 18898.8    0.00
 1982 169     5       0   15745  272428       0  272428  272428     0.0    0.00  1453.7 18897.8    0.00 18897.8 18897.8    0.00
 1982 170     6       0   15744  272414       0  272414  272414     0.0    0.00  1453.6 18896.8    0.00 18896.8 18896.8    0.00
 1982 171     7       0   15743  272400       0  272400  272400     0.0    0.00  1453.5 18895.8    0.00 18895.8 18895.8    0.00
 1982 172     8       0   15742  272386       0  272386  272386     0.0    0.00  1453.4 18894.8    0.00 18894.8 18894.8    0.00
 1982 173     9       0   15742  272371       0  272371  272371     0.0    0.00  1453.4 18893.8    0.00 18893.8 18893.8    0.00
 1982 174    10       0   15741  272357       0  272357  272357     0.0    0.00  1453.3 18892.9    0.00 18892.9 18892.9    0.00
 1982 175    11       0   15740  272344       0  272344  272344     0.0    0.00  1453.2 18891.9    0.00 18891.9 18891.9    0.00
 1982 176    12       0   15739  272329       0  272329  272329     0.0    0.00  1453.1 18890.9    0.00 18890.9 18890.9    0.00
 1982 177    13       0   15738  272315       0  272315  272315     0.0    0.00  1453.0 18889.9    0.00 18889.9 18889.9    0.00
 1982 178    14       0   15737  272300       0  272300  272300     0.0    0.00  1453.0 18888.9    0.00 18888.9 18888.9    0.00
 1982 179    15       0   15736  272286       0  272286  272286     0.0    0.00  1452.9 18887.9    0.00 18887.9 18887.9    0.00
 1982 180    16       0   15735  272272       0  272272  272272     0.0    0.00  1452.8 18886.9    0.00 18886.9 18886.9    0.00
 1982 181    17       0   15734  272258       0  272258  272258     0.1    0.00  1452.7 18885.9    0.00 18885.9 18885.9    0.00
 1982 182    18       0   15734  272244       0  272244  272243     0.1    0.00  1452.6 18884.9    0.00 18884.9 18884.9    0.00
 1982 183    19       0   15733  272229       0  272229  272229     0.2    0.00  1452.5 18883.9    0.00 18883.9 18883.9    0.01
 1982 184    20       0   15732  272215       0  272215  272215     0.2    0.00  1452.5 18882.9    0.00 18882.9 18882.9    0.01
 1982 185    21       0   15731  272200       0  272200  272200     0.3    0.00  1452.4 18881.9    0.00 18881.9 18881.9    0.01
 1982 186    22       0   15730  272186       0  272186  272186     0.4    0.00  1452.3 18880.9    0.00 18880.9 18880.9    0.01
 1982 187    23       0   15729  272171       0  272171  272171     0.4    0.00  1452.2 18879.9    0.00 18879.9 18879.9    0.01
 1982 188    24       0   15728  272156       0  272156  272156     0.6    0.00  1452.1 18878.8    0.00 18878.8 18878.8    0.02
 1982 189    25       0   15727  272142       0  272142  272141     0.7    0.00  1452.0 18877.8    0.00 18877.8 18877.8    0.02
 1982 190    26       0   15726  272127       0  272127  272126     0.8    0.00  1451.9 18876.8    0.00 18876.8 18876.7    0.03
 1982 191    27       0   15725  272112       0  272112  272111     1.0    0.00  1451.9 18875.7    0.00 18875.7 18875.7    0.04
 1982 192    28       0   15725  272098       0  272098  272097     1.2    0.00  1451.8 18874.8    0.00 18874.8 18874.7    0.04
 1982 193    29       0   15724  272084       0  272084  272083     1.5    0.00  1451.7 18873.8    0.00 18873.8 18873.8    0.05
 1982 194    30       0   15723  272071       0  272071  272069     1.8    0.00  1451.7 18872.9    0.00 18872.9 18872.8    0.06
 1982 195    31       0   15723  272058       0  272058  272055     2.1    0.00  1451.6 18872.0    0.00 18872.0 18871.9    0.07
 1982 196    32       0   15722  272045       0  272045  272042     2.5    0.00  1451.6 18871.1    0.00 18871.1 18871.0    0.08
 1982 197    33       0   15722  272032       0  272032  272029     2.9    0.00  1451.6 18870.2    0.00 18870.2 18870.1    0.10
 1982 198    34       0   15722  272020       0  272020  272017     3.4    0.00  1451.5 18869.4    0.00 18869.4 18869.3    0.11
 1982 199    35       0   15721  272009       0  272009  272005     4.0    0.00  1451.5 18868.6    0.00 18868.6 18868.5    0.13
 1982 200    36       0   15721  271998       0  271998  271993     4.6    0.00  1451.5 18867.8    0.00 18867.8 18867.7    0.15
 1982 201    37       0   15721  271987       0  271987  271982     5.2    0.00  1451.4 18867.1    0.00 18867.1 18866.9    0.17
 1982 202    38       0   15720  271977       0  271977  271971     5.8    0.00  1451.4 18866.4    0.00 18866.4 18866.2    0.19
 1982 203    39       0   15720  271966       0  271966  271959     6.4    0.00  1451.4 18865.6    0.00 18865.6 18865.4    0.21
 1982 204    40       0   15719  271954       0  271954  271948     6.3    0.00  1451.3 18864.8    0.00 18864.8 18864.6    0.21
 1982 205    41       0   15718  271943       0  271943  271936     6.9    0.00  1451.2 18864.1    0.00 18864.1 18863.8    0.23
 1982 206    42       0   15718  271931       0  271931  271924     7.5    0.00  1451.2 18863.2    0.00 18863.2 18863.0    0.25
 1982 207    43       0   15717  271920       0  271920  271912     8.2    0.00  1451.1 18862.4    0.00 18862.4 18862.1    0.27
 1982 208    44       0   15716  271908       0  271908  271899     8.8    0.00  1451.0 18861.6    0.00 18861.6 18861.3    0.29
 1982 209    45       0   15715  271896       0  271896  271887     9.5    0.00  1450.9 18860.7    0.00 18860.7 18860.4    0.31
 1982 210    46       0   15714  271883       0  271883  271873    10.1    0.00  1450.9 18859.8    0.00 18859.8 18859.5    0.33
 1982 211    47       0   15714  271871       0  271871  271860    10.8    0.00  1450.8 18858.9    0.00 18858.9 18858.5    0.36
 1982 212    48       0   15713  271858       0  271858  271846    11.5    0.00  1450.7 18858.0    0.00 18858.0 18857.6    0.38
 1982 213    49       0   15712  271845       0  271845  271833    12.2    0.00  1450.6 18857.1    0.00 18857.1 18856.7    0.40
 1982 214    50       0   15711  271833       0  271833  271820    12.9    0.00  1450.6 18856.2    0.00 18856.2 18855.7    0.43
 1982 215    51       0   15710  271820       0  271820  271807    13.5    0.00  1450.5 18855.3    0.00 18855.3 18854.9    0.45
 1982 216    52       0   15710  271808       0  271808  271794    14.0    0.00  1450.4 18854.4    0.00 18854.4 18854.0    0.47
 1982 217    53       0   15709  271796       0  271796  271781    14.6    0.00  1450.4 18853.6    0.00 18853.6 18853.1    0.49
 1982 218    54       0   15708  271783       0  271783  271768    15.2    0.00  1450.3 18852.7    0.00 18852.7 18852.2    0.51
 1982 219    55       0   15707  271770       0  271770  271755    15.7    0.00  1450.2 18851.8    0.00 18851.8 18851.2    0.53
 1982 220    56       0   15707  271758       0  271758  271741    16.3    0.00  1450.1 18850.9    0.00 18850.9 18850.3    0.55
 1982 221    57       0   15706  271745       0  271745  271728    16.9    0.00  1450.1 18850.0    0.00 18850.0 18849.4    0.57
 1982 222    58       0   15705  271733       0  271733  271715    17.5    0.00  1450.0 18849.1    0.00 18849.1 18848.5    0.60
 1982 223    59       0   15704  271720       0  271720  271702    18.1    0.00  1449.9 18848.2    0.00 18848.2 18847.6    0.62
 1982 224    60       0   15704  271708       0  271708  271689    18.7    0.00  1449.9 18847.3    0.00 18847.3 18846.7    0.64
 1982 225    61       0   15703  271696       0  271696  271676    19.3    0.00  1449.8 18846.4    0.00 18846.4 18845.8    0.66
 1982 226    62       0   15702  271683       0  271683  271663    19.9    0.00  1449.7 18845.6    0.00 18845.6 18844.9    0.68
 1982 227    63       0   15701  271671       0  271671  271650    20.5    0.00  1449.6 18844.7    0.00 18844.7 18844.0    0.70
 1982 228    64       0   15700  271658       0  271658  271637    21.1    0.00  1449.6 18843.8    0.00 18843.8 18843.1    0.72
 1982 229    65       0   15700  271646       0  271646  271624    21.8    0.00  1449.5 18842.9    0.00 18842.9 18842.2    0.74
 1982 230    66       0   15699  271634       0  271634  271612    22.4    0.00  1449.4 18842.1    0.00 18842.1 18841.3    0.76
 1982 231    67       0   15698  271622       0  271622  271599    23.1    0.00  1449.4 18841.2    0.00 18841.2 18840.4    0.78
 1982 232    68       0   15698  271610       0  271610  271586    23.7    0.00  1449.3 18840.3    0.00 18840.3 18839.5    0.80
 1982 233    69       0   15697  271598       0  271598  271573    24.4    0.00  1449.2 18839.5    0.00 18839.5 18838.6    0.82
 1982 234    70       0   15696  271585       0  271585  271560    25.2    0.00  1449.2 18838.6    0.00 18838.6 18837.7    0.84
 1982 235    71       0   15695  271573       0  271573  271547    26.2    0.00  1449.1 18837.7    0.00 18837.7 18836.8    0.87
 1982 236    72       0   15695  271561       0  271561  271534    27.3    0.00  1449.1 18836.8    0.00 18836.8 18835.9    0.89
 1982 237    73       0   15694  271550       0  271550  271521    28.4    0.00  1449.0 18836.0    0.00 18836.0 18835.1    0.92
 1982 238    74       0   15693  271537       0  271537  271508    29.3    0.00  1448.9 18835.1    0.00 18835.1 18834.1    0.94
 1982 239    75       0   15693  271524       0  271524  271494    30.0    0.00  1448.9 18834.1    0.00 18834.1 18833.2    0.96
 1982 240    76       0   15692  271511       0  271511  271480    30.8    0.00  1448.8 18833.2    0.00 18833.2 18832.2    0.98
 1982 241    77       0   15691  271499       0  271499  271467    31.6    0.00  1448.7 18832.3    0.00 18832.3 18831.3    1.00
 1982 242    78       0   15690  271486       0  271486  271453    32.4    0.00  1448.6 18831.4    0.00 18831.4 18830.4    1.03
 1982 243    79       0   15690  271473       0  271473  271440    33.4    0.00  1448.6 18830.5    0.00 18830.5 18829.4    1.05
 1982 244    80       0   15689  271459       0  271459  271425    34.1    0.00  1448.5 18829.5    0.00 18829.5 18828.4    1.07
 1982 245    81       0   15688  271445       0  271445  271411    34.6    0.00  1448.4 18828.5    0.00 18828.5 18827.4    1.09
 1982 246    82       0   15687  271432       0  271432  271396    35.1    0.00  1448.3 18827.5    0.00 18827.5 18826.4    1.11
 1982 247    83       0   15686  271418       0  271418  271382    35.8    0.00  1448.3 18826.6    0.00 18826.6 18825.4    1.14
 1982 248    84       0   15686  271405       0  271405  271368    36.6    0.00  1448.2 18825.6    0.00 18825.6 18824.5    1.16
 1982 249    85       0   15685  271391       0  271391  271354    37.2    0.00  1448.1 18824.7    0.00 18824.7 18823.5    1.18
 1982 250    86       0   15684  271378       0  271378  271340    37.8    0.00  1448.0 18823.7    0.00 18823.7 18822.5    1.21
 1982 251    87       0   15683  271365       0  271365  271326    38.5    0.00  1448.0 18822.8    0.00 18822.8 18821.5    1.23
 1982 252    88       0   15682  271352       0  271352  271312    39.6    0.00  1447.9 18821.8    0.00 18821.8 18820.6    1.26
 1982 253    89       0   15682  271339       0  271339  271298    40.8    0.00  1447.8 18820.9    0.00 18820.9 18819.6    1.29
 1982 254    90       0   15681  271327       0  271327  271285    42.2    0.00  1447.8 18820.0    0.00 18820.0 18818.7    1.33
 1982 255    91       0   15680  271315       0  271315  271271    43.8    0.00  1447.7 18819.2    0.00 18819.2 18817.8    1.37
 1982 256    92       0   15680  271304       0  271304  271258    45.4    0.00  1447.7 18818.3    0.00 18818.3 18816.9    1.41
 1982 257    93       0   15679  271292       0  271292  271245    46.8    0.00  1447.6 18817.4    0.00 18817.4 18816.0    1.44
 1982 258    94       0   15678  271280       0  271280  271232    48.1    0.00  1447.5 18816.6    0.00 18816.6 18815.1    1.48
 1982 259    95       0   15678  271268       0  271268  271219    49.2    0.00  1447.5 18815.7    0.00 18815.7 18814.2    1.51
 1982 260    96       0   15677  271257       0  271257  271207    50.5    0.00  1447.4 18814.9    0.00 18814.9 18813.3    1.55
 1982 261    97       0   15676  271246       0  271246  271194    51.8    0.00  1447.3 18814.0    0.00 18814.0 18812.4    1.59
 1982 262    98       0   15675  271234       0  271234  271181    53.3    0.00  1447.2 18813.2    0.00 18813.2 18811.5    1.63
 1982 263    99       0   15674  271223       0  271223  271168    54.9    0.00  1447.2 18812.3    0.00 18812.3 18810.6    1.67
 1982 264   100       0   15674  271211       0  271211  271155    56.6    0.00  1447.1 18811.5    0.00 18811.5 18809.7    1.71
 1982 265   101       0   15673  271200       0  271200  271142    58.6    0.00  1447.0 18810.6    0.00 18810.6 18808.8    1.76
 1982 266   102       0   15672  271190       0  271190  271129    60.7    0.00  1447.0 18809.8    0.00 18809.8 18808.0    1.81
 1982 267   103       0   15672  271179       0  271179  271116    63.0    0.00  1446.9 18809.0    0.00 18809.0 18807.1    1.86
 1982 268   104       0   15671  271170       0  271170  271104    65.5    0.00  1446.9 18808.2    0.00 18808.2 18806.3    1.91
 1982 269   105       0   15671  271160       0  271160  271092    68.2    0.00  1446.8 18807.4    0.00 18807.4 18805.5    1.97
 1982 270   106       0   15670  271151       0  271151  271080    71.1    0.00  1446.8 18806.7    0.00 18806.7 18804.7    2.03
 1982 271   107       0   15670  271143       0  271143  271069    74.1    0.00  1446.7 18806.0    0.00 18806.0 18803.9    2.09
 1982 272   108       0   15669  271135       0  271135  271057    77.3    0.00  1446.7 18805.3    0.00 18805.3 18803.1    2.15
 1982 273   109       0   15669  271127       0  271127  271046    80.6    0.00  1446.7 18804.6    0.00 18804.6 18802.4    2.21
 1982 274   110       0   15669  271120       0  271120  271036    84.1    0.00  1446.6 18804.0    0.00 18804.0 18801.7    2.27
 1982 275   111       0   15668  271113       0  271113  271025    87.6    0.00  1446.6 18803.3    0.00 18803.3 18801.0    2.34
 1982 276   112       0   15668  271106       0  271106  271014    91.1    0.00  1446.6 18802.7    0.00 18802.7 18800.3    2.40
 1982 277   113       0   15668  271098       0  271098  271004    94.7    0.00  1446.6 18802.1    0.00 18802.1 18799.6    2.47
 1982 278   114       0   15668  271091       0  271091  270993    98.3    0.00  1446.6 18801.4    0.00 18801.4 18798.9    2.53
 1982 279   115       0   15667  271084       0  271084  270982   101.9    0.00  1446.5 18800.8    0.00 18800.8 18798.2    2.60
 1982 280   116       0   15667  271077       0  271077  270972   105.5    0.00  1446.5 18800.1    0.00 18800.1 18797.5    2.67
 1982 281   117       0   15667  271070       0  271070  270961   109.1    0.00  1446.5 18799.5    0.00 18799.5 18796.8    2.73
 1982 282   118       0   15666  271060       0  271060  270950   110.7    0.00  1446.4 18798.8    0.00 18798.8 18796.0    2.79
 1982 283   119       0   15665  271050       0  271050  270938   112.1    0.00  1446.3 18798.1    0.00 18798.1 18795.2    2.85
 1982 284   120       0   15665  271041       0  271041  270927   114.2    0.00  1446.3 18797.3    0.00 18797.3 18794.4    2.91
 1982 285   121       0   15664  271033       0  271033  270916   116.9    0.00  1446.2 18796.7    0.00 18796.7 18793.7    2.97
 1982 286   122       0   15664  271025       0  271025  270905   119.9    0.00  1446.2 18796.0    0.00 18796.0 18793.0    3.04
 1982 287   123       0   15663  271016       0  271016  270894   122.0    0.00  1446.1 18795.3    0.00 18795.3 18792.2    3.10
 1982 288   124       0   15662  271007       0  271007  270883   124.2    0.00  1446.0 18794.6    0.00 18794.6 18791.4    3.16
 1982 289   125       0   15661  270999       0  270999  270872   127.0    0.00  1446.0 18793.9    0.00 18793.9 18790.7    3.22
 1982 290   126       0   15661  270992       0  270992  270862   130.1    0.00  1445.9 18793.3    0.00 18793.3 18790.0    3.29
 1982 291   127       0   15661  270985       0  270985  270852   133.5    0.00  1445.9 18792.7    0.00 18792.7 18789.3    3.35
 1982 292   128       0   15660  270979       0  270979  270842   137.0    0.00  1445.9 18792.1    0.00 18792.1 18788.7    3.42
 1982 293   129       0   15660  270973       0  270973  270832   140.6    0.00  1445.8 18791.5    0.00 18791.5 18788.0    3.49
 1982 294   130       0   15660  270966       0  270966  270822   144.2    0.00  1445.8 18790.9    0.00 18790.9 18787.4    3.56
 1982 295   131       0   15659  270960       0  270960  270812   147.9    0.00  1445.8 18790.3    0.00 18790.3 18786.7    3.63
 1982 296   132       0   15659  270953       0  270953  270802   151.6    0.00  1445.8 18789.7    0.00 18789.7 18786.0    3.70
 1982 297   133       0   15659  270947       0  270947  270791   155.4    0.00  1445.7 18789.1    0.00 18789.1 18785.3    3.77
 1982 298   134       0   15659  270940       0  270940  270781   159.2    0.00  1445.7 18788.5    0.00 18788.5 18784.6    3.84
 1982 299   135       0   15658  270933       0  270933  270770   163.0    0.00  1445.7 18787.9    0.00 18787.9 18783.9    3.91
 1982 300   136       0   15658  270927       0  270927  270760   166.8    0.00  1445.7 18787.2    0.00 18787.2 18783.3    3.98
 1982 301   137       0   15658  270920       0  270920  270749   170.6    0.00  1445.7 18786.6    0.00 18786.6 18782.6    4.06
 1982 302   138       0   15658  270910       0  270910  270739   170.6    0.00  1445.6 18785.9    0.00 18785.9 18781.9    4.06
 1982 303   139       0   15657  270899       0  270899  270729   170.6    0.00  1445.6 18785.3    0.00 18785.3 18781.2    4.06
 1982 304   140       0   15657  270889       0  270889  270719   170.6    0.00  1445.6 18784.6    0.00 18784.6 18780.6    4.06
 1982 305   141       0   15657  270879       0  270879  270709   170.6    0.00  1445.6 18783.9    0.00 18783.9 18779.9    4.06

*DSSAT Cropping System Model Ver. 4.7.5.008 -release  JAN 07, 2021 20:14:37

*RUN   3        : ERiMA DCC1                MZCER047 ETMZmelk    1
 MODEL          : MZCER047 - Maize
 EXPERIMENT     : ETMZmelk SN MELKSSAL
 DATA PATH      : C:\IRI\Python_Dash\ET_DSS_hist\TEST\
 TREATMENT  1   : ERiMA DCC1                MZCER047
  
@YEAR DOY   DAS    OMAC    SCDD    SOCD    SC0D    SCTD   SOMCT    LCTD    ONAC    SNDD    SOND    SN0D    SNTD   SOMNT    LNTD
 1983 164     0       0   15750  272505       0  272505  272505     0.0    0.00  1454.1 18903.2    0.00 18903.2 18903.2    0.00
 1983 165     1       0   15749  272490       0  272490  272490     0.0    0.00  1454.1 18902.1    0.00 18902.1 18902.1    0.00
 1983 166     2       0   15748  272474       0  272474  272474     0.0    0.00  1454.0 18901.0    0.00 18901.0 18901.0    0.00
 1983 167     3       0   15747  272457       0  272457  272457     0.0    0.00  1453.9 18899.8    0.00 18899.8 18899.8    0.00
 1983 168     4       0   15746  272441       0  272441  272441     0.0    0.00  1453.8 18898.7    0.00 18898.7 18898.7    0.00
 1983 169     5       0   15745  272425       0  272425  272425     0.0    0.00  1453.7 18897.6    0.00 18897.6 18897.6    0.00
 1983 170     6       0   15744  272409       0  272409  272409     0.0    0.00  1453.6 18896.5    0.00 18896.5 18896.5    0.00
 1983 171     7       0   15743  272394       0  272394  272394     0.0    0.00  1453.5 18895.4    0.00 18895.4 18895.4    0.00
 1983 172     8       0   15742  272380       0  272380  272380     0.0    0.00  1453.4 18894.4    0.00 18894.4 18894.4    0.00
 1983 173     9       0   15741  272366       0  272366  272366     0.0    0.00  1453.3 18893.4    0.00 18893.4 18893.4    0.00
 1983 174    10       0   15740  272351       0  272351  272351     0.0    0.00  1453.2 18892.4    0.00 18892.4 18892.4    0.00
 1983 175    11       0   15739  272336       0  272336  272336     0.0    0.00  1453.1 18891.4    0.00 18891.4 18891.4    0.00
 1983 176    12       0   15738  272320       0  272320  272320     0.0    0.00  1453.1 18890.3    0.00 18890.3 18890.3    0.00
 1983 177    13       0   15737  272305       0  272305  272305     0.0    0.00  1453.0 18889.2    0.00 18889.2 18889.2    0.00
 1983 178    14       0   15736  272290       0  272290  272290     0.0    0.00  1452.9 18888.1    0.00 18888.1 18888.1    0.00
 1983 179    15       0   15735  272274       0  272274  272274     0.0    0.00  1452.8 18887.1    0.00 18887.1 18887.1    0.00
 1983 180    16       0   15734  272260       0  272260  272260     0.0    0.00  1452.7 18886.1    0.00 18886.1 18886.1    0.00
 1983 181    17       0   15734  272246       0  272246  272246     0.1    0.00  1452.6 18885.1    0.00 18885.1 18885.1    0.00
 1983 182    18       0   15733  272232       0  272232  272232     0.1    0.00  1452.5 18884.1    0.00 18884.1 18884.1    0.00
 1983 183    19       0   15732  272217       0  272217  272217     0.2    0.00  1452.5 18883.1    0.00 18883.1 18883.1    0.01
 1983 184    20       0   15731  272203       0  272203  272202     0.2    0.00  1452.4 18882.1    0.00 18882.1 18882.1    0.01
 1983 185    21       0   15730  272187       0  272187  272187     0.3    0.00  1452.3 18881.0    0.00 18881.0 18881.0    0.01
 1983 186    22       0   15729  272172       0  272172  272172     0.4    0.00  1452.2 18879.9    0.00 18879.9 18879.9    0.01
 1983 187    23       0   15728  272156       0  272156  272156     0.5    0.00  1452.1 18878.8    0.00 18878.8 18878.8    0.02
 1983 188    24       0   15727  272141       0  272141  272140     0.6    0.00  1452.0 18877.7    0.00 18877.7 18877.7    0.02
 1983 189    25       0   15726  272125       0  272125  272124     0.8    0.00  1451.9 18876.7    0.00 18876.7 18876.6    0.03
 1983 190    26       0   15725  272110       0  272110  272109     1.0    0.00  1451.9 18875.6    0.00 18875.6 18875.6    0.03
 1983 191    27       0   15724  272095       0  272095  272093     1.2    0.00  1451.8 18874.5    0.00 18874.5 18874.5    0.04
 1983 192    28       0   15723  272079       0  272079  272078     1.5    0.00  1451.7 18873.5    0.00 18873.5 18873.4    0.05
 1983 193    29       0   15722  272064       0  272064  272062     1.8    0.00  1451.6 18872.4    0.00 18872.4 18872.3    0.06
 1983 194    30       0   15721  272049       0  272049  272047     2.1    0.00  1451.5 18871.3    0.00 18871.3 18871.3    0.07
 1983 195    31       0   15721  272035       0  272035  272032     2.6    0.00  1451.4 18870.3    0.00 18870.3 18870.2    0.09
 1983 196    32       0   15720  272021       0  272021  272018     3.0    0.00  1451.4 18869.4    0.00 18869.4 18869.3    0.10
 1983 197    33       0   15719  272008       0  272008  272004     3.6    0.00  1451.3 18868.4    0.00 18868.4 18868.3    0.12
 1983 198    34       0   15719  271994       0  271994  271990     4.1    0.00  1451.2 18867.5    0.00 18867.5 18867.3    0.14
 1983 199    35       0   15718  271982       0  271982  271977     4.8    0.00  1451.2 18866.6    0.00 18866.6 18866.4    0.16
 1983 200    36       0   15717  271969       0  271969  271964     5.4    0.00  1451.1 18865.7    0.00 18865.7 18865.5    0.18
 1983 201    37       0   15717  271957       0  271957  271951     6.0    0.00  1451.1 18864.8    0.00 18864.8 18864.6    0.19
 1983 202    38       0   15716  271945       0  271945  271938     6.7    0.00  1451.0 18864.0    0.00 18864.0 18863.8    0.22
 1983 203    39       0   15715  271933       0  271933  271925     7.5    0.00  1450.9 18863.1    0.00 18863.1 18862.9    0.24
 1983 204    40       0   15714  271920       0  271920  271912     8.2    0.00  1450.9 18862.3    0.00 18862.3 18862.0    0.27
 1983 205    41       0   15714  271908       0  271908  271899     9.0    0.00  1450.8 18861.4    0.00 18861.4 18861.1    0.29
 1983 206    42       0   15713  271896       0  271896  271886     9.8    0.00  1450.7 18860.5    0.00 18860.5 18860.2    0.32
 1983 207    43       0   15712  271883       0  271883  271873    10.6    0.00  1450.6 18859.6    0.00 18859.6 18859.2    0.35
 1983 208    44       0   15711  271871       0  271871  271859    11.5    0.00  1450.6 18858.7    0.00 18858.7 18858.3    0.37
 1983 209    45       0   15710  271858       0  271858  271846    12.2    0.00  1450.5 18857.8    0.00 18857.8 18857.4    0.40
 1983 210    46       0   15710  271845       0  271845  271832    12.8    0.00  1450.4 18856.8    0.00 18856.8 18856.4    0.42
 1983 211    47       0   15709  271832       0  271832  271819    13.5    0.00  1450.3 18855.9    0.00 18855.9 18855.5    0.45
 1983 212    48       0   15708  271819       0  271819  271805    14.3    0.00  1450.3 18855.0    0.00 18855.0 18854.5    0.47
 1983 213    49       0   15707  271807       0  271807  271792    15.1    0.00  1450.2 18854.1    0.00 18854.1 18853.6    0.50
 1983 214    50       0   15707  271794       0  271794  271778    16.0    0.00  1450.1 18853.2    0.00 18853.2 18852.7    0.53
 1983 215    51       0   15706  271782       0  271782  271765    17.0    0.00  1450.1 18852.4    0.00 18852.4 18851.8    0.56
 1983 216    52       0   15706  271770       0  271770  271752    18.0    0.00  1450.0 18851.5    0.00 18851.5 18850.9    0.59
 1983 217    53       0   15705  271758       0  271758  271739    19.0    0.00  1450.0 18850.6    0.00 18850.6 18850.0    0.62
 1983 218    54       0   15705  271746       0  271746  271726    20.0    0.00  1449.9 18849.8    0.00 18849.8 18849.1    0.65
 1983 219    55       0   15704  271734       0  271734  271713    21.1    0.00  1449.9 18848.9    0.00 18848.9 18848.3    0.68
 1983 220    56       0   15704  271723       0  271723  271701    22.1    0.00  1449.9 18848.1    0.00 18848.1 18847.4    0.72
 1983 221    57       0   15703  271711       0  271711  271688    23.0    0.00  1449.8 18847.3    0.00 18847.3 18846.5    0.74
 1983 222    58       0   15702  271699       0  271699  271675    24.0    0.00  1449.7 18846.4    0.00 18846.4 18845.6    0.77
 1983 223    59       0   15701  271687       0  271687  271662    24.7    0.00  1449.6 18845.6    0.00 18845.6 18844.8    0.80
 1983 224    60       0   15700  271675       0  271675  271649    25.5    0.00  1449.6 18844.7    0.00 18844.7 18843.9    0.82
 1983 225    61       0   15700  271662       0  271662  271636    26.2    0.00  1449.5 18843.8    0.00 18843.8 18842.9    0.85
 1983 226    62       0   15699  271650       0  271650  271623    27.0    0.00  1449.4 18842.9    0.00 18842.9 18842.0    0.87
 1983 227    63       0   15698  271638       0  271638  271610    27.8    0.00  1449.4 18842.1    0.00 18842.1 18841.2    0.90
 1983 228    64       0   15697  271626       0  271626  271598    28.6    0.00  1449.3 18841.2    0.00 18841.2 18840.3    0.92
 1983 229    65       0   15697  271614       0  271614  271585    29.3    0.00  1449.2 18840.4    0.00 18840.4 18839.4    0.95
 1983 230    66       0   15696  271603       0  271603  271572    30.1    0.00  1449.1 18839.5    0.00 18839.5 18838.5    0.97
 1983 231    67       0   15695  271591       0  271591  271560    30.8    0.00  1449.1 18838.7    0.00 18838.7 18837.7    1.00
 1983 232    68       0   15694  271579       0  271579  271547    31.5    0.00  1449.0 18837.8    0.00 18837.8 18836.8    1.02
 1983 233    69       0   15694  271566       0  271566  271534    32.2    0.00  1448.9 18836.9    0.00 18836.9 18835.9    1.04
 1983 234    70       0   15693  271554       0  271554  271521    32.8    0.00  1448.9 18836.0    0.00 18836.0 18835.0    1.06
 1983 235    71       0   15692  271541       0  271541  271508    33.5    0.00  1448.8 18835.2    0.00 18835.2 18834.1    1.08
 1983 236    72       0   15691  271529       0  271529  271495    34.1    0.00  1448.7 18834.2    0.00 18834.2 18833.1    1.11
 1983 237    73       0   15691  271516       0  271516  271481    34.7    0.00  1448.7 18833.3    0.00 18833.3 18832.2    1.13
 1983 238    74       0   15690  271503       0  271503  271468    35.2    0.00  1448.6 18832.4    0.00 18832.4 18831.3    1.15
 1983 239    75       0   15689  271490       0  271490  271455    35.7    0.00  1448.5 18831.6    0.00 18831.6 18830.4    1.17
 1983 240    76       0   15688  271477       0  271477  271441    36.2    0.00  1448.4 18830.6    0.00 18830.6 18829.4    1.19
 1983 241    77       0   15687  271464       0  271464  271428    36.7    0.00  1448.4 18829.7    0.00 18829.7 18828.5    1.21
 1983 242    78       0   15687  271451       0  271451  271414    37.2    0.00  1448.3 18828.8    0.00 18828.8 18827.5    1.23
 1983 243    79       0   15686  271437       0  271437  271400    37.8    0.00  1448.2 18827.8    0.00 18827.8 18826.6    1.25
 1983 244    80       0   15685  271424       0  271424  271386    38.3    0.00  1448.1 18826.9    0.00 18826.9 18825.6    1.27
 1983 245    81       0   15684  271411       0  271411  271372    38.9    0.00  1448.1 18825.9    0.00 18825.9 18824.6    1.29
 1983 246    82       0   15683  271397       0  271397  271358    39.3    0.00  1448.0 18825.0    0.00 18825.0 18823.7    1.31
 1983 247    83       0   15682  271384       0  271384  271344    39.9    0.00  1447.9 18824.0    0.00 18824.0 18822.7    1.33
 1983 248    84       0   15682  271371       0  271371  271330    40.5    0.00  1447.8 18823.1    0.00 18823.1 18821.8    1.35
 1983 249    85       0   15681  271358       0  271358  271316    41.2    0.00  1447.8 18822.2    0.00 18822.2 18820.8    1.37
 1983 250    86       0   15680  271344       0  271344  271302    41.9    0.00  1447.7 18821.2    0.00 18821.2 18819.8    1.39
 1983 251    87       0   15679  271331       0  271331  271288    42.8    0.00  1447.6 18820.3    0.00 18820.3 18818.8    1.41
 1983 252    88       0   15678  271318       0  271318  271275    43.7    0.00  1447.5 18819.3    0.00 18819.3 18817.9    1.43
 1983 253    89       0   15678  271306       0  271306  271261    44.7    0.00  1447.5 18818.4    0.00 18818.4 18817.0    1.46
 1983 254    90       0   15677  271294       0  271294  271248    45.8    0.00  1447.4 18817.5    0.00 18817.5 18816.0    1.48
 1983 255    91       0   15676  271282       0  271282  271235    47.0    0.00  1447.3 18816.6    0.00 18816.6 18815.1    1.51
 1983 256    92       0   15675  271269       0  271269  271221    48.2    0.00  1447.3 18815.7    0.00 18815.7 18814.2    1.54
 1983 257    93       0   15675  271257       0  271257  271208    49.3    0.00  1447.2 18814.8    0.00 18814.8 18813.2    1.57
 1983 258    94       0   15674  271244       0  271244  271194    50.5    0.00  1447.1 18813.9    0.00 18813.9 18812.3    1.60
 1983 259    95       0   15673  271232       0  271232  271180    51.8    0.00  1447.0 18813.0    0.00 18813.0 18811.3    1.63
 1983 260    96       0   15672  271219       0  271219  271166    53.1    0.00  1447.0 18812.0    0.00 18812.0 18810.4    1.66
 1983 261    97       0   15671  271206       0  271206  271152    54.5    0.00  1446.9 18811.1    0.00 18811.1 18809.4    1.70
 1983 262    98       0   15670  271194       0  271194  271138    56.0    0.00  1446.8 18810.2    0.00 18810.2 18808.5    1.74
 1983 263    99       0   15670  271182       0  271182  271125    57.4    0.00  1446.7 18809.3    0.00 18809.3 18807.5    1.77
 1983 264   100       0   15669  271170       0  271170  271111    58.8    0.00  1446.7 18808.4    0.00 18808.4 18806.6    1.81
 1983 265   101       0   15668  271158       0  271158  271098    60.4    0.00  1446.6 18807.5    0.00 18807.5 18805.7    1.85
 1983 266   102       0   15667  271146       0  271146  271084    61.9    0.00  1446.5 18806.6    0.00 18806.6 18804.7    1.89
 1983 267   103       0   15667  271134       0  271134  271071    63.4    0.00  1446.4 18805.7    0.00 18805.7 18803.8    1.93
 1983 268   104       0   15666  271122       0  271122  271057    64.9    0.00  1446.4 18804.8    0.00 18804.8 18802.8    1.97
 1983 269   105       0   15665  271110       0  271110  271043    66.6    0.00  1446.3 18803.9    0.00 18803.9 18801.9    2.02
 1983 270   106       0   15664  271098       0  271098  271030    68.4    0.00  1446.2 18803.0    0.00 18803.0 18800.9    2.07
 1983 271   107       0   15663  271087       0  271087  271016    70.5    0.00  1446.2 18802.1    0.00 18802.1 18800.0    2.12
 1983 272   108       0   15663  271076       0  271076  271003    72.7    0.00  1446.1 18801.3    0.00 18801.3 18799.1    2.17
 1983 273   109       0   15662  271066       0  271066  270991    75.1    0.00  1446.0 18800.5    0.00 18800.5 18798.3    2.22
 1983 274   110       0   15662  271056       0  271056  270978    77.7    0.00  1446.0 18799.7    0.00 18799.7 18797.4    2.28
 1983 275   111       0   15661  271047       0  271047  270966    80.5    0.00  1445.9 18798.9    0.00 18798.9 18796.6    2.34
 1983 276   112       0   15660  271037       0  271037  270954    83.3    0.00  1445.9 18798.2    0.00 18798.2 18795.8    2.41
 1983 277   113       0   15660  271028       0  271028  270942    86.3    0.00  1445.8 18797.4    0.00 18797.4 18794.9    2.47
 1983 278   114       0   15659  271019       0  271019  270930    89.3    0.00  1445.8 18796.7    0.00 18796.7 18794.1    2.54
 1983 279   115       0   15659  271010       0  271010  270918    92.2    0.00  1445.7 18795.9    0.00 18795.9 18793.3    2.60
 1983 280   116       0   15658  271001       0  271001  270906    95.2    0.00  1445.7 18795.2    0.00 18795.2 18792.5    2.67
 1983 281   117       0   15658  270993       0  270993  270894    98.5    0.00  1445.7 18794.5    0.00 18794.5 18791.7    2.74
 1983 282   118       0   15658  270985       0  270985  270883   101.8    0.00  1445.6 18793.8    0.00 18793.8 18791.0    2.81
 1983 283   119       0   15657  270978       0  270978  270872   105.3    0.00  1445.6 18793.1    0.00 18793.1 18790.2    2.88
 1983 284   120       0   15657  270971       0  270971  270862   108.9    0.00  1445.5 18792.5    0.00 18792.5 18789.5    2.95
 1983 285   121       0   15656  270964       0  270964  270852   112.7    0.00  1445.5 18791.9    0.00 18791.9 18788.8    3.03
 1983 286   122       0   15656  270958       0  270958  270841   116.7    0.00  1445.5 18791.3    0.00 18791.3 18788.2    3.11
 1983 287   123       0   15656  270952       0  270952  270831   120.8    0.00  1445.5 18790.7    0.00 18790.7 18787.5    3.18
 1983 288   124       0   15655  270946       0  270946  270821   125.1    0.00  1445.4 18790.0    0.00 18790.0 18786.8    3.26
 1983 289   125       0   15655  270940       0  270940  270810   129.4    0.00  1445.4 18789.4    0.00 18789.4 18786.1    3.34
 1983 290   126       0   15655  270933       0  270933  270800   133.5    0.00  1445.4 18788.8    0.00 18788.8 18785.4    3.42
 1983 291   127       0   15654  270926       0  270926  270789   137.5    0.00  1445.3 18788.2    0.00 18788.2 18784.7    3.50
 1983 292   128       0   15654  270920       0  270920  270778   141.6    0.00  1445.3 18787.5    0.00 18787.5 18784.0    3.58
 1983 293   129       0   15654  270913       0  270913  270768   145.8    0.00  1445.3 18786.9    0.00 18786.9 18783.3    3.66
 1983 294   130       0   15654  270908       0  270908  270757   150.2    0.00  1445.3 18786.3    0.00 18786.3 18782.6    3.74
 1983 295   131       0   15653  270902       0  270902  270747   154.6    0.00  1445.2 18785.7    0.00 18785.7 18781.9    3.82
 1983 296   132       0   15653  270897       0  270897  270738   158.9    0.00  1445.2 18785.2    0.00 18785.2 18781.3    3.90
 1983 297   133       0   15653  270891       0  270891  270728   163.3    0.00  1445.2 18784.6    0.00 18784.6 18780.6    3.98
 1983 298   134       0   15653  270886       0  270886  270718   167.7    0.00  1445.2 18784.1    0.00 18784.1 18780.0    4.06
 1983 299   135       0   15653  270876       0  270876  270709   167.7    0.00  1445.2 18783.4    0.00 18783.4 18779.4    4.06
 1983 300   136       0   15652  270867       0  270867  270699   167.6    0.00  1445.1 18782.8    0.00 18782.8 18778.7    4.06
 1983 301   137       0   15652  270857       0  270857  270689   167.6    0.00  1445.1 18782.1    0.00 18782.1 18778.1    4.06
 1983 302   138       0   15652  270847       0  270847  270679   167.5    0.00  1445.1 18781.5    0.00 18781.5 18777.4    4.06

*DSSAT Cropping System Model Ver. 4.7.5.008 -release  JAN 07, 2021 20:14:37

*RUN   4        : ERiMA DCC1                MZCER047 ETMZmelk    1
 MODEL          : MZCER047 - Maize
 EXPERIMENT     : ETMZmelk SN MELKSSAL
 DATA PATH      : C:\IRI\Python_Dash\ET_DSS_hist\TEST\
 TREATMENT  1   : ERiMA DCC1                MZCER047
  
@YEAR DOY   DAS    OMAC    SCDD    SOCD    SC0D    SCTD   SOMCT    LCTD    ONAC    SNDD    SOND    SN0D    SNTD   SOMNT    LNTD
 1984 164     0       0   15750  272505       0  272505  272505     0.0    0.00  1454.1 18903.2    0.00 18903.2 18903.2    0.00
 1984 165     1       0   15749  272489       0  272489  272489     0.0    0.00  1454.0 18902.0    0.00 18902.0 18902.0    0.00
 1984 166     2       0   15748  272473       0  272473  272473     0.0    0.00  1454.0 18901.0    0.00 18901.0 18901.0    0.00
 1984 167     3       0   15747  272458       0  272458  272458     0.0    0.00  1453.9 18899.9    0.00 18899.9 18899.9    0.00
 1984 168     4       0   15746  272444       0  272444  272444     0.0    0.00  1453.8 18898.9    0.00 18898.9 18898.9    0.00
 1984 169     5       0   15745  272429       0  272429  272429     0.0    0.00  1453.7 18897.9    0.00 18897.9 18897.9    0.00
 1984 170     6       0   15744  272416       0  272416  272416     0.0    0.00  1453.6 18896.9    0.00 18896.9 18896.9    0.00
 1984 171     7       0   15743  272402       0  272402  272402     0.0    0.00  1453.5 18896.0    0.00 18896.0 18896.0    0.00
 1984 172     8       0   15743  272388       0  272388  272388     0.0    0.00  1453.5 18895.0    0.00 18895.0 18895.0    0.00
 1984 173     9       0   15742  272375       0  272375  272375     0.0    0.00  1453.4 18894.1    0.00 18894.1 18894.1    0.00
 1984 174    10       0   15741  272361       0  272361  272361     0.0    0.00  1453.3 18893.1    0.00 18893.1 18893.1    0.00
 1984 175    11       0   15740  272347       0  272347  272347     0.0    0.00  1453.2 18892.2    0.00 18892.2 18892.2    0.00
 1984 176    12       0   15739  272334       0  272334  272334     0.0    0.00  1453.2 18891.2    0.00 18891.2 18891.2    0.00
 1984 177    13       0   15738  272320       0  272320  272320     0.0    0.00  1453.1 18890.3    0.00 18890.3 18890.3    0.00
 1984 178    14       0   15738  272306       0  272306  272306     0.0    0.00  1453.0 18889.3    0.00 18889.3 18889.3    0.00
 1984 179    15       0   15737  272292       0  272292  272292     0.0    0.00  1452.9 18888.3    0.00 18888.3 18888.3    0.00
 1984 180    16       0   15736  272279       0  272279  272279     0.0    0.00  1452.8 18887.4    0.00 18887.4 18887.4    0.00
 1984 181    17       0   15735  272265       0  272265  272265     0.0    0.00  1452.8 18886.4    0.00 18886.4 18886.4    0.00
 1984 182    18       0   15734  272251       0  272251  272251     0.1    0.00  1452.7 18885.5    0.00 18885.5 18885.5    0.00
 1984 183    19       0   15733  272238       0  272238  272238     0.1    0.00  1452.6 18884.5    0.00 18884.5 18884.5    0.00
 1984 184    20       0   15732  272224       0  272224  272224     0.2    0.00  1452.5 18883.6    0.00 18883.6 18883.6    0.01
 1984 185    21       0   15732  272210       0  272210  272210     0.2    0.00  1452.5 18882.6    0.00 18882.6 18882.6    0.01
 1984 186    22       0   15731  272197       0  272197  272197     0.3    0.00  1452.4 18881.7    0.00 18881.7 18881.7    0.01
 1984 187    23       0   15730  272184       0  272184  272184     0.4    0.00  1452.3 18880.8    0.00 18880.8 18880.8    0.01
 1984 188    24       0   15729  272171       0  272171  272171     0.5    0.00  1452.2 18879.9    0.00 18879.9 18879.9    0.02
 1984 189    25       0   15729  272158       0  272158  272157     0.7    0.00  1452.2 18879.0    0.00 18879.0 18879.0    0.02
 1984 190    26       0   15728  272145       0  272145  272144     0.9    0.00  1452.1 18878.1    0.00 18878.1 18878.0    0.03
 1984 191    27       0   15727  272131       0  272131  272130     1.1    0.00  1452.0 18877.1    0.00 18877.1 18877.1    0.04
 1984 192    28       0   15726  272118       0  272118  272116     1.3    0.00  1451.9 18876.2    0.00 18876.2 18876.1    0.04
 1984 193    29       0   15725  272104       0  272104  272103     1.6    0.00  1451.9 18875.2    0.00 18875.2 18875.2    0.05
 1984 194    30       0   15725  272091       0  272091  272089     1.9    0.00  1451.8 18874.3    0.00 18874.3 18874.2    0.06
 1984 195    31       0   15724  272078       0  272078  272076     2.2    0.00  1451.7 18873.4    0.00 18873.4 18873.3    0.07
 1984 196    32       0   15723  272065       0  272065  272063     2.6    0.00  1451.7 18872.5    0.00 18872.5 18872.4    0.09
 1984 197    33       0   15723  272053       0  272053  272050     3.0    0.00  1451.7 18871.7    0.00 18871.7 18871.6    0.10
 1984 198    34       0   15723  272041       0  272041  272038     3.5    0.00  1451.6 18870.8    0.00 18870.8 18870.7    0.12
 1984 199    35       0   15722  272030       0  272030  272026     4.1    0.00  1451.6 18870.0    0.00 18870.0 18869.9    0.13
 1984 200    36       0   15722  272018       0  272018  272013     4.7    0.00  1451.5 18869.2    0.00 18869.2 18869.1    0.15
 1984 201    37       0   15721  272007       0  272007  272002     5.3    0.00  1451.5 18868.4    0.00 18868.4 18868.3    0.18
 1984 202    38       0   15721  271996       0  271996  271990     6.0    0.00  1451.4 18867.6    0.00 18867.6 18867.4    0.20
 1984 203    39       0   15720  271984       0  271984  271978     6.8    0.00  1451.4 18866.8    0.00 18866.8 18866.6    0.22
 1984 204    40       0   15719  271973       0  271973  271965     7.5    0.00  1451.3 18866.0    0.00 18866.0 18865.8    0.24
 1984 205    41       0   15719  271961       0  271961  271953     8.3    0.00  1451.2 18865.2    0.00 18865.2 18864.9    0.27
 1984 206    42       0   15718  271949       0  271949  271940     9.1    0.00  1451.2 18864.3    0.00 18864.3 18864.0    0.30
 1984 207    43       0   15717  271937       0  271937  271927    10.0    0.00  1451.1 18863.4    0.00 18863.4 18863.1    0.33
 1984 208    44       0   15716  271924       0  271924  271914    10.9    0.00  1451.0 18862.5    0.00 18862.5 18862.2    0.35
 1984 209    45       0   15715  271912       0  271912  271900    11.7    0.00  1450.9 18861.6    0.00 18861.6 18861.2    0.38
 1984 210    46       0   15715  271899       0  271899  271887    12.5    0.00  1450.9 18860.7    0.00 18860.7 18860.3    0.41
 1984 211    47       0   15714  271887       0  271887  271873    13.3    0.00  1450.8 18859.8    0.00 18859.8 18859.4    0.45
 1984 212    48       0   15713  271874       0  271874  271860    14.3    0.00  1450.7 18858.9    0.00 18858.9 18858.4    0.48
 1984 213    49       0   15712  271862       0  271862  271846    15.2    0.00  1450.6 18858.0    0.00 18858.0 18857.5    0.52
 1984 214    50       0   15711  271849       0  271849  271833    16.2    0.00  1450.6 18857.1    0.00 18857.1 18856.6    0.55
 1984 215    51       0   15711  271837       0  271837  271819    17.2    0.00  1450.5 18856.2    0.00 18856.2 18855.6    0.58
 1984 216    52       0   15710  271824       0  271824  271806    18.2    0.00  1450.4 18855.3    0.00 18855.3 18854.7    0.62
 1984 217    53       0   15709  271812       0  271812  271793    19.3    0.00  1450.4 18854.4    0.00 18854.4 18853.8    0.66
 1984 218    54       0   15708  271800       0  271800  271780    20.4    0.00  1450.3 18853.6    0.00 18853.6 18852.9    0.69
 1984 219    55       0   15707  271788       0  271788  271766    21.5    0.00  1450.2 18852.7    0.00 18852.7 18851.9    0.73
 1984 220    56       0   15707  271776       0  271776  271753    22.6    0.00  1450.1 18851.8    0.00 18851.8 18851.0    0.77
 1984 221    57       0   15706  271764       0  271764  271740    23.7    0.00  1450.1 18850.9    0.00 18850.9 18850.1    0.81
 1984 222    58       0   15705  271751       0  271751  271727    24.7    0.00  1450.0 18850.0    0.00 18850.0 18849.2    0.84
 1984 223    59       0   15704  271739       0  271739  271713    25.8    0.00  1449.9 18849.1    0.00 18849.1 18848.2    0.88
 1984 224    60       0   15704  271727       0  271727  271700    27.0    0.00  1449.9 18848.2    0.00 18848.2 18847.3    0.91
 1984 225    61       0   15703  271715       0  271715  271686    28.4    0.00  1449.8 18847.4    0.00 18847.4 18846.4    0.95
 1984 226    62       0   15702  271703       0  271703  271673    29.7    0.00  1449.7 18846.5    0.00 18846.5 18845.5    0.99
 1984 227    63       0   15701  271690       0  271690  271659    30.8    0.00  1449.7 18845.6    0.00 18845.6 18844.5    1.03
 1984 228    64       0   15701  271677       0  271677  271645    31.9    0.00  1449.6 18844.6    0.00 18844.6 18843.6    1.06
 1984 229    65       0   15700  271665       0  271665  271632    33.0    0.00  1449.5 18843.7    0.00 18843.7 18842.6    1.09
 1984 230    66       0   15699  271652       0  271652  271618    34.2    0.00  1449.4 18842.8    0.00 18842.8 18841.7    1.13
 1984 231    67       0   15698  271640       0  271640  271604    35.5    0.00  1449.4 18841.9    0.00 18841.9 18840.7    1.16
 1984 232    68       0   15697  271628       0  271628  271591    36.8    0.00  1449.3 18841.0    0.00 18841.0 18839.8    1.20
 1984 233    69       0   15697  271616       0  271616  271578    38.3    0.00  1449.2 18840.1    0.00 18840.1 18838.9    1.24
 1984 234    70       0   15696  271605       0  271605  271565    39.9    0.00  1449.2 18839.3    0.00 18839.3 18838.0    1.28
 1984 235    71       0   15695  271594       0  271594  271552    41.6    0.00  1449.1 18838.4    0.00 18838.4 18837.1    1.32
 1984 236    72       0   15695  271583       0  271583  271539    43.5    0.00  1449.1 18837.6    0.00 18837.6 18836.2    1.36
 1984 237    73       0   15694  271572       0  271572  271526    45.4    0.00  1449.0 18836.8    0.00 18836.8 18835.4    1.41
 1984 238    74       0   15694  271561       0  271561  271514    47.3    0.00  1449.0 18836.0    0.00 18836.0 18834.5    1.45
 1984 239    75       0   15693  271551       0  271551  271501    49.4    0.00  1448.9 18835.2    0.00 18835.2 18833.7    1.50
 1984 240    76       0   15693  271540       0  271540  271489    51.4    0.00  1448.9 18834.4    0.00 18834.4 18832.8    1.55
 1984 241    77       0   15692  271530       0  271530  271476    53.2    0.00  1448.8 18833.5    0.00 18833.5 18832.0    1.59
 1984 242    78       0   15691  271518       0  271518  271464    54.7    0.00  1448.7 18832.7    0.00 18832.7 18831.1    1.63
 1984 243    79       0   15690  271507       0  271507  271451    56.2    0.00  1448.6 18831.9    0.00 18831.9 18830.2    1.67
 1984 244    80       0   15689  271496       0  271496  271439    57.7    0.00  1448.6 18831.1    0.00 18831.1 18829.4    1.71
 1984 245    81       0   15689  271486       0  271486  271427    59.4    0.00  1448.5 18830.3    0.00 18830.3 18828.5    1.75
 1984 246    82       0   15688  271476       0  271476  271414    61.2    0.00  1448.4 18829.5    0.00 18829.5 18827.7    1.80
 1984 247    83       0   15687  271465       0  271465  271402    63.0    0.00  1448.4 18828.7    0.00 18828.7 18826.9    1.85
 1984 248    84       0   15686  271455       0  271455  271391    64.8    0.00  1448.3 18827.9    0.00 18827.9 18826.0    1.89
 1984 249    85       0   15686  271445       0  271445  271379    66.4    0.00  1448.2 18827.2    0.00 18827.2 18825.2    1.93
 1984 250    86       0   15685  271435       0  271435  271367    68.1    0.00  1448.1 18826.4    0.00 18826.4 18824.4    1.98
 1984 251    87       0   15684  271425       0  271425  271355    69.6    0.00  1448.0 18825.6    0.00 18825.6 18823.6    2.02
 1984 252    88       0   15683  271414       0  271414  271343    71.0    0.00  1448.0 18824.8    0.00 18824.8 18822.8    2.06
 1984 253    89       0   15682  271404       0  271404  271331    72.4    0.00  1447.9 18824.0    0.00 18824.0 18821.9    2.10
 1984 254    90       0   15681  271393       0  271393  271319    73.8    0.00  1447.8 18823.2    0.00 18823.2 18821.1    2.14
 1984 255    91       0   15681  271382       0  271382  271307    75.3    0.00  1447.7 18822.5    0.00 18822.5 18820.3    2.18
 1984 256    92       0   15680  271372       0  271372  271295    77.1    0.00  1447.7 18821.7    0.00 18821.7 18819.5    2.23
 1984 257    93       0   15679  271363       0  271363  271284    78.9    0.00  1447.6 18820.9    0.00 18820.9 18818.7    2.27
 1984 258    94       0   15678  271353       0  271353  271272    80.6    0.00  1447.5 18820.2    0.00 18820.2 18817.8    2.31
 1984 259    95       0   15677  271343       0  271343  271260    82.5    0.00  1447.5 18819.4    0.00 18819.4 18817.0    2.36
 1984 260    96       0   15677  271334       0  271334  271249    84.7    0.00  1447.4 18818.7    0.00 18818.7 18816.3    2.41
 1984 261    97       0   15676  271325       0  271325  271238    87.0    0.00  1447.3 18817.9    0.00 18817.9 18815.5    2.46
 1984 262    98       0   15675  271316       0  271316  271227    89.4    0.00  1447.3 18817.2    0.00 18817.2 18814.7    2.51
 1984 263    99       0   15675  271308       0  271308  271215    92.1    0.00  1447.2 18816.5    0.00 18816.5 18814.0    2.57
 1984 264   100       0   15674  271300       0  271300  271205    95.1    0.00  1447.2 18815.8    0.00 18815.8 18813.2    2.62
 1984 265   101       0   15674  271292       0  271292  271194    98.3    0.00  1447.1 18815.2    0.00 18815.2 18812.5    2.68
 1984 266   102       0   15673  271284       0  271284  271183   101.2    0.00  1447.1 18814.5    0.00 18814.5 18811.7    2.74
 1984 267   103       0   15672  271276       0  271276  271172   104.0    0.00  1447.0 18813.8    0.00 18813.8 18811.0    2.80
 1984 268   104       0   15672  271268       0  271268  271161   107.2    0.00  1446.9 18813.1    0.00 18813.1 18810.3    2.86
 1984 269   105       0   15672  271262       0  271262  271151   110.6    0.00  1446.9 18812.5    0.00 18812.5 18809.6    2.92
 1984 270   106       0   15671  271256       0  271256  271141   114.2    0.00  1446.9 18811.9    0.00 18811.9 18809.0    2.99
 1984 271   107       0   15671  271250       0  271250  271132   117.8    0.00  1446.9 18811.4    0.00 18811.4 18808.3    3.05
 1984 272   108       0   15671  271243       0  271243  271122   121.4    0.00  1446.8 18810.8    0.00 18810.8 18807.7    3.12
 1984 273   109       0   15670  271237       0  271237  271112   125.1    0.00  1446.8 18810.2    0.00 18810.2 18807.0    3.18
 1984 274   110       0   15670  271231       0  271231  271103   128.8    0.00  1446.8 18809.6    0.00 18809.6 18806.4    3.25
 1984 275   111       0   15670  271225       0  271225  271093   132.6    0.00  1446.8 18809.1    0.00 18809.1 18805.8    3.32
 1984 276   112       0   15670  271219       0  271219  271083   136.4    0.00  1446.7 18808.5    0.00 18808.5 18805.1    3.38
 1984 277   113       0   15669  271213       0  271213  271073   140.1    0.00  1446.7 18807.9    0.00 18807.9 18804.5    3.45
 1984 278   114       0   15669  271207       0  271207  271063   143.9    0.00  1446.7 18807.3    0.00 18807.3 18803.8    3.52
 1984 279   115       0   15669  271201       0  271201  271054   147.6    0.00  1446.7 18806.7    0.00 18806.7 18803.2    3.58
 1984 280   116       0   15669  271195       0  271195  271043   151.4    0.00  1446.7 18806.2    0.00 18806.2 18802.5    3.65
 1984 281   117       0   15669  271189       0  271189  271033   155.1    0.00  1446.6 18805.6    0.00 18805.6 18801.8    3.72
 1984 282   118       0   15668  271182       0  271182  271023   158.8    0.00  1446.6 18805.0    0.00 18805.0 18801.2    3.79
 1984 283   119       0   15668  271176       0  271176  271013   162.5    0.00  1446.6 18804.4    0.00 18804.4 18800.5    3.85
 1984 284   120       0   15668  271166       0  271166  271004   162.5    0.00  1446.6 18803.7    0.00 18803.7 18799.9    3.85
 1984 285   121       0   15668  271156       0  271156  270994   162.5    0.00  1446.6 18803.1    0.00 18803.1 18799.2    3.85
 1984 286   122       0   15667  271149       0  271149  270983   165.8    0.00  1446.5 18802.4    0.00 18802.4 18798.5    3.92
 1984 287   123       0   15667  271142       0  271142  270973   169.2    0.00  1446.5 18801.8    0.00 18801.8 18797.9    3.98
 1984 288   124       0   15667  271132       0  271132  270963   169.0    0.00  1446.5 18801.2    0.00 18801.2 18797.2    3.98
 1984 289   125       0   15667  271121       0  271121  270952   168.8    0.00  1446.5 18800.5    0.00 18800.5 18796.5    3.98
 1984 290   126       0   15666  271111       0  271111  270942   168.7    0.00  1446.4 18799.8    0.00 18799.8 18795.8    3.98
 1984 291   127       0   15666  271101       0  271101  270932   168.6    0.00  1446.4 18799.1    0.00 18799.1 18795.2    3.98
 1984 292   128       0   15666  271091       0  271091  270922   168.5    0.00  1446.4 18798.5    0.00 18798.5 18794.5    3.98
 1984 293   129       0   15666  271081       0  271081  270912   168.5    0.00  1446.4 18797.8    0.00 18797.8 18793.8    3.98
 1984 294   130       0   15665  271071       0  271071  270902   168.5    0.00  1446.3 18797.2    0.00 18797.2 18793.2    3.98
 1984 295   131       0   15665  271061       0  271061  270892   168.5    0.00  1446.3 18796.5    0.00 18796.5 18792.5    3.98
 1984 296   132       0   15665  271051       0  271051  270882   168.5    0.00  1446.3 18795.9    0.00 18795.9 18791.9    3.98

*DSSAT Cropping System Model Ver. 4.7.5.008 -release  JAN 07, 2021 20:14:37

*RUN   5        : ERiMA DCC1                MZCER047 ETMZmelk    1
 MODEL          : MZCER047 - Maize
 EXPERIMENT     : ETMZmelk SN MELKSSAL
 DATA PATH      : C:\IRI\Python_Dash\ET_DSS_hist\TEST\
 TREATMENT  1   : ERiMA DCC1                MZCER047
  
@YEAR DOY   DAS    OMAC    SCDD    SOCD    SC0D    SCTD   SOMCT    LCTD    ONAC    SNDD    SOND    SN0D    SNTD   SOMNT    LNTD
 1985 164     0       0   15750  272505       0  272505  272505     0.0    0.00  1454.1 18903.2    0.00 18903.2 18903.2    0.00
 1985 165     1       0   15749  272491       0  272491  272491     0.0    0.00  1454.1 18902.2    0.00 18902.2 18902.2    0.00
 1985 166     2       0   15748  272477       0  272477  272477     0.0    0.00  1454.0 18901.2    0.00 18901.2 18901.2    0.00
 1985 167     3       0   15747  272462       0  272462  272462     0.0    0.00  1453.9 18900.1    0.00 18900.1 18900.1    0.00
 1985 168     4       0   15746  272447       0  272447  272447     0.0    0.00  1453.8 18899.1    0.00 18899.1 18899.1    0.00
 1985 169     5       0   15745  272433       0  272433  272433     0.0    0.00  1453.7 18898.1    0.00 18898.1 18898.1    0.00
 1985 170     6       0   15745  272418       0  272418  272418     0.0    0.00  1453.6 18897.1    0.00 18897.1 18897.1    0.00
 1985 171     7       0   15744  272404       0  272404  272404     0.0    0.00  1453.6 18896.1    0.00 18896.1 18896.1    0.00
 1985 172     8       0   15743  272390       0  272390  272390     0.0    0.00  1453.5 18895.1    0.00 18895.1 18895.1    0.00
 1985 173     9       0   15742  272376       0  272376  272376     0.0    0.00  1453.4 18894.2    0.00 18894.2 18894.2    0.00
 1985 174    10       0   15741  272362       0  272362  272362     0.0    0.00  1453.3 18893.2    0.00 18893.2 18893.2    0.00
 1985 175    11       0   15740  272348       0  272348  272348     0.0    0.00  1453.2 18892.2    0.00 18892.2 18892.2    0.00
 1985 176    12       0   15739  272334       0  272334  272334     0.0    0.00  1453.2 18891.2    0.00 18891.2 18891.2    0.00
 1985 177    13       0   15738  272320       0  272320  272320     0.0    0.00  1453.1 18890.3    0.00 18890.3 18890.3    0.00
 1985 178    14       0   15738  272306       0  272306  272306     0.0    0.00  1453.0 18889.3    0.00 18889.3 18889.3    0.00
 1985 179    15       0   15737  272292       0  272292  272292     0.0    0.00  1452.9 18888.3    0.00 18888.3 18888.3    0.00
 1985 180    16       0   15736  272278       0  272278  272278     0.0    0.00  1452.8 18887.3    0.00 18887.3 18887.3    0.00
 1985 181    17       0   15735  272264       0  272264  272264     0.0    0.00  1452.8 18886.3    0.00 18886.3 18886.3    0.00
 1985 182    18       0   15734  272250       0  272250  272250     0.1    0.00  1452.7 18885.4    0.00 18885.4 18885.4    0.00
 1985 183    19       0   15733  272236       0  272236  272236     0.1    0.00  1452.6 18884.4    0.00 18884.4 18884.4    0.00
 1985 184    20       0   15732  272223       0  272223  272222     0.2    0.00  1452.5 18883.5    0.00 18883.5 18883.5    0.01
 1985 185    21       0   15732  272209       0  272209  272209     0.3    0.00  1452.4 18882.5    0.00 18882.5 18882.5    0.01
 1985 186    22       0   15731  272196       0  272196  272196     0.3    0.00  1452.4 18881.6    0.00 18881.6 18881.6    0.01
 1985 187    23       0   15730  272183       0  272183  272183     0.4    0.00  1452.3 18880.7    0.00 18880.7 18880.7    0.01
 1985 188    24       0   15729  272171       0  272171  272170     0.5    0.00  1452.2 18879.9    0.00 18879.9 18879.8    0.02
 1985 189    25       0   15728  272158       0  272158  272157     0.6    0.00  1452.2 18879.0    0.00 18879.0 18878.9    0.02
 1985 190    26       0   15728  272146       0  272146  272145     0.8    0.00  1452.1 18878.1    0.00 18878.1 18878.1    0.03
 1985 191    27       0   15727  272133       0  272133  272132     1.0    0.00  1452.0 18877.2    0.00 18877.2 18877.2    0.03
 1985 192    28       0   15726  272120       0  272120  272119     1.2    0.00  1451.9 18876.3    0.00 18876.3 18876.3    0.04
 1985 193    29       0   15725  272107       0  272107  272106     1.4    0.00  1451.9 18875.4    0.00 18875.4 18875.3    0.05
 1985 194    30       0   15725  272094       0  272094  272092     1.7    0.00  1451.8 18874.5    0.00 18874.5 18874.4    0.06
 1985 195    31       0   15724  272081       0  272081  272079     1.9    0.00  1451.7 18873.6    0.00 18873.6 18873.5    0.06
 1985 196    32       0   15723  272068       0  272068  272066     2.3    0.00  1451.6 18872.7    0.00 18872.7 18872.6    0.08
 1985 197    33       0   15722  272056       0  272056  272053     2.7    0.00  1451.6 18871.8    0.00 18871.8 18871.7    0.09
 1985 198    34       0   15721  272043       0  272043  272040     3.1    0.00  1451.5 18870.9    0.00 18870.9 18870.8    0.10
 1985 199    35       0   15721  272031       0  272031  272027     3.6    0.00  1451.4 18870.0    0.00 18870.0 18869.9    0.12
 1985 200    36       0   15720  272018       0  272018  272014     4.1    0.00  1451.4 18869.1    0.00 18869.1 18869.0    0.14
 1985 201    37       0   15719  272006       0  272006  272001     4.7    0.00  1451.3 18868.2    0.00 18868.2 18868.1    0.16
 1985 202    38       0   15718  271994       0  271994  271988     5.4    0.00  1451.2 18867.4    0.00 18867.4 18867.2    0.18
 1985 203    39       0   15717  271981       0  271981  271975     6.1    0.00  1451.1 18866.5    0.00 18866.5 18866.3    0.20
 1985 204    40       0   15717  271969       0  271969  271962     6.8    0.00  1451.1 18865.6    0.00 18865.6 18865.4    0.22
 1985 205    41       0   15716  271957       0  271957  271949     7.6    0.00  1451.0 18864.7    0.00 18864.7 18864.5    0.25
 1985 206    42       0   15715  271945       0  271945  271936     8.4    0.00  1450.9 18863.9    0.00 18863.9 18863.6    0.27
 1985 207    43       0   15714  271932       0  271932  271923     9.2    0.00  1450.9 18863.0    0.00 18863.0 18862.7    0.30
 1985 208    44       0   15714  271920       0  271920  271910    10.1    0.00  1450.8 18862.1    0.00 18862.1 18861.8    0.33
 1985 209    45       0   15713  271908       0  271908  271898    10.8    0.00  1450.7 18861.2    0.00 18861.2 18860.9    0.35
 1985 210    46       0   15712  271896       0  271896  271885    11.5    0.00  1450.6 18860.4    0.00 18860.4 18860.0    0.38
 1985 211    47       0   15711  271884       0  271884  271872    12.3    0.00  1450.6 18859.5    0.00 18859.5 18859.1    0.40
 1985 212    48       0   15711  271872       0  271872  271859    13.1    0.00  1450.5 18858.7    0.00 18858.7 18858.2    0.43
 1985 213    49       0   15710  271860       0  271860  271846    14.0    0.00  1450.4 18857.8    0.00 18857.8 18857.3    0.46
[...]
 2013 287   123       0   15654  270973       0  270973  270882    91.7    0.00  1445.3 18793.2    0.00 18793.2 18790.6    2.63
 2013 288   124       0   15653  270963       0  270963  270869    94.0    0.00  1445.2 18792.4    0.00 18792.4 18789.7    2.68
 2013 289   125       0   15652  270951       0  270951  270855    96.1    0.00  1445.1 18791.5    0.00 18791.5 18788.8    2.74
 2013 290   126       0   15651  270939       0  270939  270842    97.9    0.00  1445.0 18790.6    0.00 18790.6 18787.8    2.79
 2013 291   127       0   15650  270928       0  270928  270828    99.9    0.00  1445.0 18789.7    0.00 18789.7 18786.9    2.84
 2013 292   128       0   15650  270917       0  270917  270815   102.1    0.00  1444.9 18788.9    0.00 18788.9 18786.0    2.90
 2013 293   129       0   15649  270906       0  270906  270801   104.6    0.00  1444.8 18788.0    0.00 18788.0 18785.1    2.96
 2013 294   130       0   15648  270896       0  270896  270789   107.4    0.00  1444.7 18787.2    0.00 18787.2 18784.2    3.02
 2013 295   131       0   15647  270886       0  270886  270776   110.4    0.00  1444.7 18786.4    0.00 18786.4 18783.3    3.09
 2013 296   132       0   15647  270877       0  270877  270764   113.5    0.00  1444.6 18785.6    0.00 18785.6 18782.5    3.16
 2013 297   133       0   15646  270868       0  270868  270752   116.8    0.00  1444.6 18784.9    0.00 18784.9 18781.7    3.23
 2013 298   134       0   15646  270860       0  270860  270740   120.3    0.00  1444.5 18784.2    0.00 18784.2 18780.9    3.31
 2013 299   135       0   15645  270852       0  270852  270729   124.0    0.00  1444.5 18783.5    0.00 18783.5 18780.1    3.38
 2013 300   136       0   15645  270845       0  270845  270717   127.8    0.00  1444.4 18782.8    0.00 18782.8 18779.3    3.46
 2013 301   137       0   15644  270838       0  270838  270707   131.8    0.00  1444.4 18782.2    0.00 18782.2 18778.6    3.54
 2013 302   138       0   15644  270827       0  270827  270696   131.2    0.00  1444.4 18781.4    0.00 18781.4 18777.9    3.54
 2013 303   139       0   15644  270816       0  270816  270685   130.7    0.00  1444.3 18780.7    0.00 18780.7 18777.2    3.53
 2013 304   140       0   15643  270805       0  270805  270675   130.4    0.00  1444.3 18780.0    0.00 18780.0 18776.5    3.53

*DSSAT Cropping System Model Ver. 4.7.5.008 -release  JAN 07, 2021 20:14:52

*RUN  68        : ERiMA DCC1                MZCER047 ETMZawas    1
 MODEL          : MZCER047 - Maize
 EXPERIMENT     : ETMZawas SN MELKSSAL
 DATA PATH      : C:\IRI\Python_Dash\ET_DSS_hist\TEST\
 TREATMENT  1   : ERiMA DCC1                MZCER047
  
@YEAR DOY   DAS    OMAC    SCDD    SOCD    SC0D    SCTD   SOMCT    LCTD    ONAC    SNDD    SOND    SN0D    SNTD   SOMNT    LNTD
 2014 164     0       0   15750  272505       0  272505  272505     0.0    0.00  1454.1 18903.2    0.00 18903.2 18903.2    0.00
 2014 165     1       0   15749  272491       0  272491  272491     0.0    0.00  1454.1 18902.2    0.00 18902.2 18902.2    0.00
 2014 166     2       0   15748  272477       0  272477  272477     0.0    0.00  1454.0 18901.2    0.00 18901.2 18901.2    0.00
 2014 167     3       0   15747  272463       0  272463  272463     0.0    0.00  1453.9 18900.2    0.00 18900.2 18900.2    0.00
 2014 168     4       0   15747  272449       0  272449  272449     0.0    0.00  1453.8 18899.3    0.00 18899.3 18899.3    0.00
 2014 169     5       0   15746  272435       0  272435  272435     0.0    0.00  1453.7 18898.3    0.00 18898.3 18898.3    0.00
 2014 170     6       0   15745  272420       0  272420  272420     0.0    0.00  1453.7 18897.3    0.00 18897.3 18897.3    0.00
 2014 171     7       0   15744  272406       0  272406  272406     0.0    0.00  1453.6 18896.2    0.00 18896.2 18896.2    0.00
 2014 172     8       0   15743  272391       0  272391  272391     0.0    0.00  1453.5 18895.2    0.00 18895.2 18895.2    0.00
 2014 173     9       0   15742  272377       0  272377  272377     0.0    0.00  1453.4 18894.2    0.00 18894.2 18894.2    0.00
 2014 174    10       0   15741  272363       0  272363  272363     0.0    0.00  1453.3 18893.3    0.00 18893.3 18893.3    0.00
 2014 175    11       0   15740  272349       0  272349  272349     0.0    0.00  1453.3 18892.3    0.00 18892.3 18892.3    0.00
 2014 176    12       0   15739  272336       0  272336  272336     0.0    0.00  1453.2 18891.4    0.00 18891.4 18891.4    0.00
 2014 177    13       0   15739  272322       0  272322  272322     0.0    0.00  1453.1 18890.4    0.00 18890.4 18890.4    0.00
 2014 178    14       0   15738  272309       0  272309  272309     0.0    0.00  1453.0 18889.5    0.00 18889.5 18889.5    0.00
 2014 179    15       0   15737  272295       0  272295  272295     0.0    0.00  1452.9 18888.5    0.00 18888.5 18888.5    0.00
 2014 180    16       0   15736  272281       0  272281  272281     0.0    0.00  1452.9 18887.6    0.00 18887.6 18887.6    0.00
 2014 181    17       0   15735  272267       0  272267  272267     0.0    0.00  1452.8 18886.6    0.00 18886.6 18886.6    0.00
 2014 182    18       0   15734  272254       0  272254  272254     0.1    0.00  1452.7 18885.7    0.00 18885.7 18885.7    0.00
 2014 183    19       0   15734  272240       0  272240  272240     0.1    0.00  1452.6 18884.7    0.00 18884.7 18884.7    0.00
 2014 184    20       0   15733  272226       0  272226  272226     0.2    0.00  1452.6 18883.8    0.00 18883.8 18883.8    0.01
 2014 185    21       0   15732  272213       0  272213  272212     0.2    0.00  1452.5 18882.8    0.00 18882.8 18882.8    0.01
 2014 186    22       0   15732  272199       0  272199  272199     0.3    0.00  1452.4 18881.9    0.00 18881.9 18881.9    0.01
 2014 187    23       0   15731  272186       0  272186  272186     0.4    0.00  1452.4 18881.0    0.00 18881.0 18881.0    0.01
 2014 188    24       0   15730  272173       0  272173  272172     0.5    0.00  1452.3 18880.1    0.00 18880.1 18880.0    0.01
 2014 189    25       0   15729  272159       0  272159  272158     0.6    0.00  1452.3 18879.1    0.00 18879.1 18879.1    0.02
 2014 190    26       0   15729  272145       0  272145  272145     0.7    0.00  1452.2 18878.2    0.00 18878.2 18878.1    0.02
 2014 191    27       0   15728  272132       0  272132  272131     0.8    0.00  1452.1 18877.2    0.00 18877.2 18877.2    0.03
 2014 192    28       0   15727  272119       0  272119  272118     1.0    0.00  1452.0 18876.3    0.00 18876.3 18876.3    0.03
 2014 193    29       0   15726  272106       0  272106  272105     1.1    0.00  1451.9 18875.4    0.00 18875.4 18875.3    0.04
 2014 194    30       0   15725  272093       0  272093  272091     1.3    0.00  1451.9 18874.5    0.00 18874.5 18874.4    0.04
 2014 195    31       0   15725  272080       0  272080  272078     1.6    0.00  1451.8 18873.6    0.00 18873.6 18873.5    0.05
 2014 196    32       0   15724  272067       0  272067  272065     1.9    0.00  1451.7 18872.7    0.00 18872.7 18872.6    0.06
 2014 197    33       0   15723  272054       0  272054  272051     2.1    0.00  1451.7 18871.7    0.00 18871.7 18871.7    0.07
 2014 198    34       0   15722  272040       0  272040  272038     2.5    0.00  1451.6 18870.8    0.00 18870.8 18870.7    0.08
 2014 199    35       0   15721  272027       0  272027  272024     2.8    0.00  1451.5 18869.8    0.00 18869.8 18869.7    0.09
 2014 200    36       0   15720  272013       0  272013  272010     3.2    0.00  1451.4 18868.9    0.00 18868.9 18868.8    0.10
 2014 201    37       0   15720  272000       0  272000  271996     3.6    0.00  1451.3 18867.9    0.00 18867.9 18867.8    0.11
 2014 202    38       0   15719  271986       0  271986  271982     4.0    0.00  1451.3 18867.0    0.00 18867.0 18866.8    0.13
 2014 203    39       0   15718  271973       0  271973  271968     4.4    0.00  1451.2 18866.0    0.00 18866.0 18865.9    0.14
 2014 204    40       0   15717  271960       0  271960  271955     4.8    0.00  1451.1 18865.1    0.00 18865.1 18864.9    0.15
 2014 205    41       0   15716  271946       0  271946  271941     5.3    0.00  1451.0 18864.1    0.00 18864.1 18864.0    0.17
 2014 206    42       0   15715  271933       0  271933  271928     5.8    0.00  1451.0 18863.2    0.00 18863.2 18863.0    0.19
 2014 207    43       0   15715  271921       0  271921  271914     6.3    0.00  1450.9 18862.3    0.00 18862.3 18862.1    0.20
 2014 208    44       0   15714  271908       0  271908  271901     6.9    0.00  1450.8 18861.4    0.00 18861.4 18861.2    0.22
 2014 209    45       0   15713  271895       0  271895  271888     7.4    0.00  1450.8 18860.5    0.00 18860.5 18860.3    0.23
 2014 210    46       0   15713  271883       0  271883  271875     8.0    0.00  1450.7 18859.6    0.00 18859.6 18859.4    0.25
 2014 211    47       0   15712  271870       0  271870  271862     8.6    0.00  1450.7 18858.8    0.00 18858.8 18858.5    0.27
 2014 212    48       0   15712  271858       0  271858  271849     9.2    0.00  1450.6 18857.9    0.00 18857.9 18857.6    0.29
 2014 213    49       0   15711  271846       0  271846  271837     9.9    0.00  1450.6 18857.1    0.00 18857.1 18856.8    0.30
 2014 214    50       0   15711  271835       0  271835  271824    10.5    0.00  1450.5 18856.3    0.00 18856.3 18856.0    0.32
 2014 215    51       0   15711  271824       0  271824  271813    11.2    0.00  1450.5 18855.5    0.00 18855.5 18855.2    0.34
 2014 216    52       0   15710  271813       0  271813  271801    11.8    0.00  1450.5 18854.8    0.00 18854.8 18854.4    0.36
 2014 217    53       0   15710  271802       0  271802  271789    12.5    0.00  1450.4 18854.0    0.00 18854.0 18853.6    0.38
 2014 218    54       0   15710  271791       0  271791  271778    13.2    0.00  1450.4 18853.3    0.00 18853.3 18852.9    0.40
 2014 219    55       0   15709  271780       0  271780  271766    13.8    0.00  1450.4 18852.5    0.00 18852.5 18852.0    0.42
 2014 220    56       0   15708  271768       0  271768  271754    14.3    0.00  1450.3 18851.6    0.00 18851.6 18851.2    0.43
 2014 221    57       0   15708  271756       0  271756  271741    14.7    0.00  1450.2 18850.8    0.00 18850.8 18850.3    0.45
 2014 222    58       0   15707  271745       0  271745  271729    15.3    0.00  1450.2 18850.0    0.00 18850.0 18849.5    0.47
 2014 223    59       0   15706  271733       0  271733  271717    15.8    0.00  1450.1 18849.2    0.00 18849.2 18848.7    0.49
 2014 224    60       0   15705  271721       0  271721  271705    16.2    0.00  1450.0 18848.3    0.00 18848.3 18847.8    0.51
 2014 225    61       0   15704  271709       0  271709  271692    16.6    0.00  1449.9 18847.5    0.00 18847.5 18847.0    0.52
 2014 226    62       0   15704  271696       0  271696  271679    17.0    0.00  1449.9 18846.6    0.00 18846.6 18846.1    0.54
 2014 227    63       0   15703  271684       0  271684  271666    17.4    0.00  1449.8 18845.7    0.00 18845.7 18845.2    0.56
 2014 228    64       0   15702  271671       0  271671  271653    17.9    0.00  1449.7 18844.8    0.00 18844.8 18844.3    0.57
 2014 229    65       0   15701  271659       0  271659  271640    18.3    0.00  1449.6 18843.9    0.00 18843.9 18843.4    0.59
 2014 230    66       0   15700  271646       0  271646  271627    18.7    0.00  1449.6 18843.1    0.00 18843.1 18842.5    0.61
 2014 231    67       0   15700  271633       0  271633  271614    19.1    0.00  1449.5 18842.2    0.00 18842.2 18841.5    0.62
 2014 232    68       0   15699  271621       0  271621  271601    19.5    0.00  1449.4 18841.3    0.00 18841.3 18840.6    0.64
 2014 233    69       0   15698  271608       0  271608  271588    19.9    0.00  1449.3 18840.3    0.00 18840.3 18839.7    0.65
 2014 234    70       0   15697  271594       0  271594  271574    20.3    0.00  1449.3 18839.4    0.00 18839.4 18838.7    0.66
 2014 235    71       0   15696  271581       0  271581  271560    20.7    0.00  1449.2 18838.5    0.00 18838.5 18837.8    0.68
 2014 236    72       0   15695  271567       0  271567  271546    21.2    0.00  1449.1 18837.5    0.00 18837.5 18836.8    0.69
 2014 237    73       0   15694  271554       0  271554  271532    21.6    0.00  1449.0 18836.5    0.00 18836.5 18835.8    0.71
 2014 238    74       0   15694  271540       0  271540  271518    21.9    0.00  1448.9 18835.5    0.00 18835.5 18834.8    0.72
 2014 239    75       0   15693  271526       0  271526  271504    22.3    0.00  1448.9 18834.6    0.00 18834.6 18833.8    0.74
 2014 240    76       0   15692  271512       0  271512  271489    22.7    0.00  1448.8 18833.6    0.00 18833.6 18832.9    0.75
 2014 241    77       0   15691  271498       0  271498  271475    23.2    0.00  1448.7 18832.6    0.00 18832.6 18831.9    0.77
 2014 242    78       0   15690  271484       0  271484  271461    22.4    0.00  1448.6 18831.7    0.00 18831.7 18830.9    0.75
 2014 243    79       0   15689  271469       0  271469  271447    21.8    0.00  1448.6 18830.7    0.00 18830.7 18829.9    0.74
 2014 244    80       0   15689  271454       0  271454  271433    21.2    0.00  1448.5 18829.7    0.00 18829.7 18829.0    0.73
 2014 245    81       0   15688  271440       0  271440  271419    20.5    0.00  1448.4 18828.7    0.00 18828.7 18828.0    0.72
 2014 246    82       0   15687  271426       0  271426  271406    19.9    0.00  1448.3 18827.8    0.00 18827.8 18827.1    0.70
 2014 247    83       0   15686  271412       0  271412  271392    19.4    0.00  1448.2 18826.8    0.00 18826.8 18826.1    0.69
 2014 248    84       0   15685  271398       0  271398  271379    18.9    0.00  1448.2 18825.9    0.00 18825.9 18825.2    0.68
 2014 249    85       0   15684  271384       0  271384  271365    18.5    0.00  1448.1 18824.9    0.00 18824.9 18824.2    0.67
 2014 250    86       0   15684  271370       0  271370  271352    18.0    0.00  1448.0 18824.0    0.00 18824.0 18823.3    0.66
 2014 251    87       0   15683  271356       0  271356  271338    17.5    0.00  1447.9 18823.0    0.00 18823.0 18822.4    0.64
 2014 252    88       0   15682  271342       0  271342  271324    17.1    0.00  1447.9 18822.0    0.00 18822.0 18821.4    0.63
 2014 253    89       0   15681  271327       0  271327  271311    16.6    0.00  1447.8 18821.1    0.00 18821.1 18820.4    0.62
 2014 254    90       0   15680  271313       0  271313  271297    16.3    0.00  1447.7 18820.1    0.00 18820.1 18819.5    0.61
 2014 255    91       0   15679  271300       0  271300  271283    17.9    0.00  1447.6 18819.1    0.00 18819.1 18818.5    0.63
 2014 256    92       0   15679  271288       0  271288  271269    19.4    0.00  1447.6 18818.2    0.00 18818.2 18817.5    0.68
 2014 257    93       0   15678  271276       0  271276  271255    20.8    0.00  1447.5 18817.3    0.00 18817.3 18816.6    0.73
 2014 258    94       0   15677  271263       0  271263  271241    22.3    0.00  1447.4 18816.4    0.00 18816.4 18815.6    0.77
 2014 259    95       0   15676  271251       0  271251  271227    23.7    0.00  1447.3 18815.4    0.00 18815.4 18814.6    0.82
 2014 260    96       0   15675  271238       0  271238  271213    25.2    0.00  1447.3 18814.5    0.00 18814.5 18813.7    0.87
 2014 261    97       0   15674  271226       0  271226  271199    26.8    0.00  1447.2 18813.6    0.00 18813.6 18812.7    0.92
 2014 262    98       0   15674  271213       0  271213  271185    28.4    0.00  1447.1 18812.7    0.00 18812.7 18811.7    0.98
 2014 263    99       0   15673  271201       0  271201  271171    30.1    0.00  1447.0 18811.8    0.00 18811.8 18810.7    1.03
 2014 264   100       0   15672  271188       0  271188  271157    31.7    0.00  1447.0 18810.8    0.00 18810.8 18809.8    1.09
 2014 265   101       0   15671  271176       0  271176  271143    33.3    0.00  1446.9 18809.9    0.00 18809.9 18808.8    1.14
 2014 266   102       0   15670  271163       0  271163  271129    34.8    0.00  1446.8 18809.0    0.00 18809.0 18807.8    1.19
 2014 267   103       0   15670  271151       0  271151  271115    36.4    0.00  1446.7 18808.1    0.00 18808.1 18806.8    1.25
 2014 268   104       0   15669  271139       0  271139  271101    37.9    0.00  1446.6 18807.2    0.00 18807.2 18805.9    1.30
 2014 269   105       0   15668  271126       0  271126  271087    39.5    0.00  1446.6 18806.3    0.00 18806.3 18804.9    1.36
 2014 270   106       0   15667  271114       0  271114  271073    41.1    0.00  1446.5 18805.4    0.00 18805.4 18803.9    1.41
 2014 271   107       0   15666  271102       0  271102  271059    42.8    0.00  1446.4 18804.4    0.00 18804.4 18803.0    1.47
 2014 272   108       0   15665  271089       0  271089  271045    44.3    0.00  1446.3 18803.5    0.00 18803.5 18802.0    1.52
 2014 273   109       0   15664  271077       0  271077  271031    46.0    0.00  1446.3 18802.6    0.00 18802.6 18801.0    1.57
 2014 274   110       0   15664  271064       0  271064  271017    47.5    0.00  1446.2 18801.7    0.00 18801.7 18800.0    1.63
 2014 275   111       0   15663  271051       0  271051  271002    49.1    0.00  1446.1 18800.7    0.00 18800.7 18799.1    1.68
 2014 276   112       0   15662  271039       0  271039  270988    50.9    0.00  1446.0 18799.8    0.00 18799.8 18798.1    1.74
 2014 277   113       0   15661  271027       0  271027  270974    52.6    0.00  1445.9 18798.9    0.00 18798.9 18797.1    1.80
 2014 278   114       0   15660  271014       0  271014  270960    54.4    0.00  1445.9 18798.0    0.00 18798.0 18796.1    1.85
 2014 279   115       0   15659  271002       0  271002  270946    56.0    0.00  1445.8 18797.1    0.00 18797.1 18795.2    1.91
 2014 280   116       0   15659  270990       0  270990  270932    57.7    0.00  1445.7 18796.2    0.00 18796.2 18794.2    1.96
 2014 281   117       0   15658  270978       0  270978  270918    59.5    0.00  1445.6 18795.3    0.00 18795.3 18793.2    2.02
 2014 282   118       0   15657  270966       0  270966  270904    61.2    0.00  1445.6 18794.3    0.00 18794.3 18792.3    2.08
 2014 283   119       0   15656  270953       0  270953  270890    62.9    0.00  1445.5 18793.4    0.00 18793.4 18791.3    2.13
 2014 284   120       0   15655  270940       0  270940  270876    64.6    0.00  1445.4 18792.5    0.00 18792.5 18790.3    2.19
 2014 285   121       0   15654  270928       0  270928  270861    66.1    0.00  1445.3 18791.5    0.00 18791.5 18789.3    2.24
 2014 286   122       0   15653  270915       0  270915  270847    67.6    0.00  1445.2 18790.6    0.00 18790.6 18788.3    2.29
 2014 287   123       0   15653  270902       0  270902  270832    69.3    0.00  1445.2 18789.6    0.00 18789.6 18787.3    2.34
 2014 288   124       0   15652  270889       0  270889  270818    71.1    0.00  1445.1 18788.6    0.00 18788.6 18786.2    2.40
 2014 289   125       0   15651  270876       0  270876  270803    72.9    0.00  1445.0 18787.7    0.00 18787.7 18785.2    2.46
 2014 290   126       0   15650  270863       0  270863  270788    75.0    0.00  1444.9 18786.7    0.00 18786.7 18784.2    2.52
 2014 291   127       0   15649  270851       0  270851  270774    77.1    0.00  1444.8 18785.8    0.00 18785.8 18783.2    2.58
 2014 292   128       0   15649  270839       0  270839  270759    79.4    0.00  1444.8 18784.9    0.00 18784.9 18782.2    2.65
 2014 293   129       0   15648  270826       0  270826  270745    81.3    0.00  1444.7 18783.9    0.00 18783.9 18781.2    2.71
 2014 294   130       0   15647  270809       0  270809  270730    78.7    0.00  1444.6 18782.9    0.00 18782.9 18780.2    2.67
 2014 295   131       0   15646  270792       0  270792  270715    76.3    0.00  1444.5 18781.8    0.00 18781.8 18779.2    2.62
 2014 296   132       0   15645  270775       0  270775  270701    74.2    0.00  1444.5 18780.8    0.00 18780.8 18778.2    2.58
 2014 297   133       0   15644  270759       0  270759  270686    72.3    0.00  1444.4 18779.7    0.00 18779.7 18777.2    2.55
