*WARNING DETAIL FILE

******************************************************************************

*DSSAT Cropping System Model Ver. 4.7.5.008 -release  JAN 07, 2021 20:33:24

*RUN   1        : ERiMA DCC1                MZCER047 ETMZmelk    1
 MODEL          : MZCER047 - Maize
 EXPERIMENT     : ETMZmelk SN MELKSSAL
 DATA PATH      : C:\IRI\Python_Dash\ET_DSS_hist\TEST\
 TREATMENT  1   : ERiMA DCC1                MZCER047
  

 SOILDYN  YEAR DOY = 1981 165
 Soil photosynthesis factor (SLPF) = 0.70                                      

******************************************************************************

*DSSAT Cropping System Model Ver. 4.7.5.008 -release  JAN 07, 2021 20:33:40

*RUN  36        : ERiMA DCC1                MZCER047 ETMZbako    1
 MODEL          : MZCER047 - Maize
 EXPERIMENT     : ETMZbako SN MELKSSAL
 DATA PATH      : C:\IRI\Python_Dash\ET_DSS_hist\TEST\
 TREATMENT  1   : ERiMA DCC1                MZCER047
  

 SOILDYN  YEAR DOY = 1981 165
 Soil photosynthesis factor (SLPF) = 0.70                                      
