*WARNING DETAIL FILE

******************************************************************************

*DSSAT Cropping System Model Ver. 4.7.5.008 -release  MAY 04, 2021 17:13:31

*RUN   1        : ET-SIMAGRI                MZCER047 ETMZdddd    1
 MODEL          : MZCER047 - Maize
 EXPERIMENT     : ETMZdddd SN MELKSSAL
 DATA PATH      : C:\IRI\Python_Dash\ET_DSS_hist\TEST\
 TREATMENT  1   : ET-SIMAGRI                MZCER047
  

 SOILDYN  YEAR DOY = 1981 165
 Soil photosynthesis factor (SLPF) = 0.70                                      
